version 3
run RSTP-Switch3RootByPriority-0-20240305-08:49:32-7099
attr configname RSTP-Switch3RootByPriority
attr datetime 20240305-08:49:32
attr datetimef 20240305-084932
attr experiment RSTP-Switch3RootByPriority
attr inifile omnetpp.ini
attr iterationvars ""
attr iterationvarsd ""
attr iterationvarsf ""
attr measurement ""
attr network SwitchNetwork
attr processid 7099
attr repetition 0
attr replication #0
attr resultdir results
attr runnumber 0
attr seedset 0
config image-path ../../images
config extends "Switch3RootByPriority, RSTP"
config **.switch3.**.bridgePriority 1
config **.hasStp true
config **.spanningTreeProtocol "\"Rstp\""
config sim-time-limit 200s
config **.vector-recording false
config **.visualize true
config **.agingTime 1s
config network SwitchNetwork
config **.switch1.**.address "\"AAAAAA000001\""
config **.switch2.**.address "\"AAAAAA000002\""
config **.switch3.**.address "\"AAAAAA000003\""
config **.switch4.**.address "\"AAAAAA000004\""
config **.switch5.**.address "\"AAAAAA000005\""
config **.switch6.**.address "\"AAAAAA000006\""
config **.switch7.**.address "\"AAAAAA000007\""
config **.switch*.eth[*].typename LayeredEthernetInterface
config **.switch*.ethernet.typename EthernetLayer
config **.switch*.eth[*].bitrate 1Gbps
config **.macLayer.server.serveSchedulingPriority -1

par SwitchNetwork.switch1.ethg$o[0].channel typename "\"inet.node.ethernet.Eth1G\""
par SwitchNetwork.switch1.ethg$o[0].channel disabled false
attr mutable ""
par SwitchNetwork.switch1.ethg$o[0].channel delay 5e-08s
attr mutable ""
attr unit s
par SwitchNetwork.switch1.ethg$o[0].channel datarate 1e+09bps
attr mutable ""
attr unit bps
par SwitchNetwork.switch1.ethg$o[0].channel ber 0
attr mutable ""
par SwitchNetwork.switch1.ethg$o[0].channel per 0
attr mutable ""
par SwitchNetwork.switch1.ethg$o[0].channel length 10m
attr unit m
par SwitchNetwork.switch4.ethg$o[0].channel typename "\"inet.node.ethernet.Eth1G\""
par SwitchNetwork.switch4.ethg$o[0].channel disabled false
attr mutable ""
par SwitchNetwork.switch4.ethg$o[0].channel delay 5e-08s
attr mutable ""
attr unit s
par SwitchNetwork.switch4.ethg$o[0].channel datarate 1e+09bps
attr mutable ""
attr unit bps
par SwitchNetwork.switch4.ethg$o[0].channel ber 0
attr mutable ""
par SwitchNetwork.switch4.ethg$o[0].channel per 0
attr mutable ""
par SwitchNetwork.switch4.ethg$o[0].channel length 10m
attr unit m
par SwitchNetwork.switch1.ethg$o[1].channel typename "\"inet.node.ethernet.Eth1G\""
par SwitchNetwork.switch1.ethg$o[1].channel disabled false
attr mutable ""
par SwitchNetwork.switch1.ethg$o[1].channel delay 5e-08s
attr mutable ""
attr unit s
par SwitchNetwork.switch1.ethg$o[1].channel datarate 1e+09bps
attr mutable ""
attr unit bps
par SwitchNetwork.switch1.ethg$o[1].channel ber 0
attr mutable ""
par SwitchNetwork.switch1.ethg$o[1].channel per 0
attr mutable ""
par SwitchNetwork.switch1.ethg$o[1].channel length 10m
attr unit m
par SwitchNetwork.switch3.ethg$o[0].channel typename "\"inet.node.ethernet.Eth1G\""
par SwitchNetwork.switch3.ethg$o[0].channel disabled false
attr mutable ""
par SwitchNetwork.switch3.ethg$o[0].channel delay 5e-08s
attr mutable ""
attr unit s
par SwitchNetwork.switch3.ethg$o[0].channel datarate 1e+09bps
attr mutable ""
attr unit bps
par SwitchNetwork.switch3.ethg$o[0].channel ber 0
attr mutable ""
par SwitchNetwork.switch3.ethg$o[0].channel per 0
attr mutable ""
par SwitchNetwork.switch3.ethg$o[0].channel length 10m
attr unit m
par SwitchNetwork.switch2.ethg$o[0].channel typename "\"inet.node.ethernet.Eth1G\""
par SwitchNetwork.switch2.ethg$o[0].channel disabled false
attr mutable ""
par SwitchNetwork.switch2.ethg$o[0].channel delay 5e-08s
attr mutable ""
attr unit s
par SwitchNetwork.switch2.ethg$o[0].channel datarate 1e+09bps
attr mutable ""
attr unit bps
par SwitchNetwork.switch2.ethg$o[0].channel ber 0
attr mutable ""
par SwitchNetwork.switch2.ethg$o[0].channel per 0
attr mutable ""
par SwitchNetwork.switch2.ethg$o[0].channel length 10m
attr unit m
par SwitchNetwork.switch4.ethg$o[1].channel typename "\"inet.node.ethernet.Eth1G\""
par SwitchNetwork.switch4.ethg$o[1].channel disabled false
attr mutable ""
par SwitchNetwork.switch4.ethg$o[1].channel delay 5e-08s
attr mutable ""
attr unit s
par SwitchNetwork.switch4.ethg$o[1].channel datarate 1e+09bps
attr mutable ""
attr unit bps
par SwitchNetwork.switch4.ethg$o[1].channel ber 0
attr mutable ""
par SwitchNetwork.switch4.ethg$o[1].channel per 0
attr mutable ""
par SwitchNetwork.switch4.ethg$o[1].channel length 10m
attr unit m
par SwitchNetwork.switch2.ethg$o[1].channel typename "\"inet.node.ethernet.Eth1G\""
par SwitchNetwork.switch2.ethg$o[1].channel disabled false
attr mutable ""
par SwitchNetwork.switch2.ethg$o[1].channel delay 5e-08s
attr mutable ""
attr unit s
par SwitchNetwork.switch2.ethg$o[1].channel datarate 1e+09bps
attr mutable ""
attr unit bps
par SwitchNetwork.switch2.ethg$o[1].channel ber 0
attr mutable ""
par SwitchNetwork.switch2.ethg$o[1].channel per 0
attr mutable ""
par SwitchNetwork.switch2.ethg$o[1].channel length 10m
attr unit m
par SwitchNetwork.switch6.ethg$o[0].channel typename "\"inet.node.ethernet.Eth1G\""
par SwitchNetwork.switch6.ethg$o[0].channel disabled false
attr mutable ""
par SwitchNetwork.switch6.ethg$o[0].channel delay 5e-08s
attr mutable ""
attr unit s
par SwitchNetwork.switch6.ethg$o[0].channel datarate 1e+09bps
attr mutable ""
attr unit bps
par SwitchNetwork.switch6.ethg$o[0].channel ber 0
attr mutable ""
par SwitchNetwork.switch6.ethg$o[0].channel per 0
attr mutable ""
par SwitchNetwork.switch6.ethg$o[0].channel length 10m
attr unit m
par SwitchNetwork.switch2.ethg$o[2].channel typename "\"inet.node.ethernet.Eth1G\""
par SwitchNetwork.switch2.ethg$o[2].channel disabled false
attr mutable ""
par SwitchNetwork.switch2.ethg$o[2].channel delay 5e-08s
attr mutable ""
attr unit s
par SwitchNetwork.switch2.ethg$o[2].channel datarate 1e+09bps
attr mutable ""
attr unit bps
par SwitchNetwork.switch2.ethg$o[2].channel ber 0
attr mutable ""
par SwitchNetwork.switch2.ethg$o[2].channel per 0
attr mutable ""
par SwitchNetwork.switch2.ethg$o[2].channel length 10m
attr unit m
par SwitchNetwork.switch7.ethg$o[0].channel typename "\"inet.node.ethernet.Eth1G\""
par SwitchNetwork.switch7.ethg$o[0].channel disabled false
attr mutable ""
par SwitchNetwork.switch7.ethg$o[0].channel delay 5e-08s
attr mutable ""
attr unit s
par SwitchNetwork.switch7.ethg$o[0].channel datarate 1e+09bps
attr mutable ""
attr unit bps
par SwitchNetwork.switch7.ethg$o[0].channel ber 0
attr mutable ""
par SwitchNetwork.switch7.ethg$o[0].channel per 0
attr mutable ""
par SwitchNetwork.switch7.ethg$o[0].channel length 10m
attr unit m
par SwitchNetwork.switch3.ethg$o[1].channel typename "\"inet.node.ethernet.Eth1G\""
par SwitchNetwork.switch3.ethg$o[1].channel disabled false
attr mutable ""
par SwitchNetwork.switch3.ethg$o[1].channel delay 5e-08s
attr mutable ""
attr unit s
par SwitchNetwork.switch3.ethg$o[1].channel datarate 1e+09bps
attr mutable ""
attr unit bps
par SwitchNetwork.switch3.ethg$o[1].channel ber 0
attr mutable ""
par SwitchNetwork.switch3.ethg$o[1].channel per 0
attr mutable ""
par SwitchNetwork.switch3.ethg$o[1].channel length 10m
attr unit m
par SwitchNetwork.switch7.ethg$o[1].channel typename "\"inet.node.ethernet.Eth1G\""
par SwitchNetwork.switch7.ethg$o[1].channel disabled false
attr mutable ""
par SwitchNetwork.switch7.ethg$o[1].channel delay 5e-08s
attr mutable ""
attr unit s
par SwitchNetwork.switch7.ethg$o[1].channel datarate 1e+09bps
attr mutable ""
attr unit bps
par SwitchNetwork.switch7.ethg$o[1].channel ber 0
attr mutable ""
par SwitchNetwork.switch7.ethg$o[1].channel per 0
attr mutable ""
par SwitchNetwork.switch7.ethg$o[1].channel length 10m
attr unit m
par SwitchNetwork.switch4.ethg$o[2].channel typename "\"inet.node.ethernet.Eth1G\""
par SwitchNetwork.switch4.ethg$o[2].channel disabled false
attr mutable ""
par SwitchNetwork.switch4.ethg$o[2].channel delay 5e-08s
attr mutable ""
attr unit s
par SwitchNetwork.switch4.ethg$o[2].channel datarate 1e+09bps
attr mutable ""
attr unit bps
par SwitchNetwork.switch4.ethg$o[2].channel ber 0
attr mutable ""
par SwitchNetwork.switch4.ethg$o[2].channel per 0
attr mutable ""
par SwitchNetwork.switch4.ethg$o[2].channel length 10m
attr unit m
par SwitchNetwork.switch6.ethg$o[1].channel typename "\"inet.node.ethernet.Eth1G\""
par SwitchNetwork.switch6.ethg$o[1].channel disabled false
attr mutable ""
par SwitchNetwork.switch6.ethg$o[1].channel delay 5e-08s
attr mutable ""
attr unit s
par SwitchNetwork.switch6.ethg$o[1].channel datarate 1e+09bps
attr mutable ""
attr unit bps
par SwitchNetwork.switch6.ethg$o[1].channel ber 0
attr mutable ""
par SwitchNetwork.switch6.ethg$o[1].channel per 0
attr mutable ""
par SwitchNetwork.switch6.ethg$o[1].channel length 10m
attr unit m
par SwitchNetwork.switch4.ethg$o[3].channel typename "\"inet.node.ethernet.Eth1G\""
par SwitchNetwork.switch4.ethg$o[3].channel disabled false
attr mutable ""
par SwitchNetwork.switch4.ethg$o[3].channel delay 5e-08s
attr mutable ""
attr unit s
par SwitchNetwork.switch4.ethg$o[3].channel datarate 1e+09bps
attr mutable ""
attr unit bps
par SwitchNetwork.switch4.ethg$o[3].channel ber 0
attr mutable ""
par SwitchNetwork.switch4.ethg$o[3].channel per 0
attr mutable ""
par SwitchNetwork.switch4.ethg$o[3].channel length 10m
attr unit m
par SwitchNetwork.switch7.ethg$o[2].channel typename "\"inet.node.ethernet.Eth1G\""
par SwitchNetwork.switch7.ethg$o[2].channel disabled false
attr mutable ""
par SwitchNetwork.switch7.ethg$o[2].channel delay 5e-08s
attr mutable ""
attr unit s
par SwitchNetwork.switch7.ethg$o[2].channel datarate 1e+09bps
attr mutable ""
attr unit bps
par SwitchNetwork.switch7.ethg$o[2].channel ber 0
attr mutable ""
par SwitchNetwork.switch7.ethg$o[2].channel per 0
attr mutable ""
par SwitchNetwork.switch7.ethg$o[2].channel length 10m
attr unit m
par SwitchNetwork.switch5.ethg$o[0].channel typename "\"inet.node.ethernet.Eth1G\""
par SwitchNetwork.switch5.ethg$o[0].channel disabled false
attr mutable ""
par SwitchNetwork.switch5.ethg$o[0].channel delay 5e-08s
attr mutable ""
attr unit s
par SwitchNetwork.switch5.ethg$o[0].channel datarate 1e+09bps
attr mutable ""
attr unit bps
par SwitchNetwork.switch5.ethg$o[0].channel ber 0
attr mutable ""
par SwitchNetwork.switch5.ethg$o[0].channel per 0
attr mutable ""
par SwitchNetwork.switch5.ethg$o[0].channel length 10m
attr unit m
par SwitchNetwork.switch7.ethg$o[3].channel typename "\"inet.node.ethernet.Eth1G\""
par SwitchNetwork.switch7.ethg$o[3].channel disabled false
attr mutable ""
par SwitchNetwork.switch7.ethg$o[3].channel delay 5e-08s
attr mutable ""
attr unit s
par SwitchNetwork.switch7.ethg$o[3].channel datarate 1e+09bps
attr mutable ""
attr unit bps
par SwitchNetwork.switch7.ethg$o[3].channel ber 0
attr mutable ""
par SwitchNetwork.switch7.ethg$o[3].channel per 0
attr mutable ""
par SwitchNetwork.switch7.ethg$o[3].channel length 10m
attr unit m
par SwitchNetwork.stpTester typename "\"inet.linklayer.ieee8021d.tester.StpTester\""
par SwitchNetwork.stpTester checkTime 0.5s
attr unit s
par SwitchNetwork.scenarioManager typename "\"inet.common.scenario.ScenarioManager\""
par SwitchNetwork.scenarioManager script "<script/> at content:1"
par SwitchNetwork.l2NetworkConfigurator typename "\"inet.linklayer.configurator.L2NetworkConfigurator\""
par SwitchNetwork.l2NetworkConfigurator config "<config>...</config> at content:1"
par SwitchNetwork.switch1.eth[0].phys$o.channel typename "\"ned.IdealChannel\""
par SwitchNetwork.switch1.ethg$i[0].channel typename "\"ned.IdealChannel\""
par SwitchNetwork.switch1.eth[1].phys$o.channel typename "\"ned.IdealChannel\""
par SwitchNetwork.switch1.ethg$i[1].channel typename "\"ned.IdealChannel\""
par SwitchNetwork.switch1.macTable typename "\"inet.linklayer.ethernet.common.MacForwardingTable\""
par SwitchNetwork.switch1.macTable agingTime 1s
attr unit s
par SwitchNetwork.switch1.macTable forwardingTable []
attr mutable ""
par SwitchNetwork.switch1.macTable forwardingTableFile "\"\""
par SwitchNetwork.switch1.macTable interfaceTableModule "\"SwitchNetwork.switch1.interfaceTable\""
par SwitchNetwork.switch1.macTable displayStringTextFormat "\"addr: %a\\nvlan: %v\""
par SwitchNetwork.switch1.interfaceTable typename "\"inet.networklayer.common.InterfaceTable\""
par SwitchNetwork.switch1.interfaceTable displayAddresses false
par SwitchNetwork.switch1.l2NodeConfigurator typename "\"inet.linklayer.configurator.L2NodeConfigurator\""
par SwitchNetwork.switch1.l2NodeConfigurator interfaceTableModule "\"SwitchNetwork.switch1.interfaceTable\""
par SwitchNetwork.switch1.l2NodeConfigurator l2ConfiguratorModule "\"l2NetworkConfigurator\""
par SwitchNetwork.switch1.stp typename "\"inet.linklayer.ieee8021d.rstp.Rstp\""
par SwitchNetwork.switch1.stp helloTime 2s
attr unit s
par SwitchNetwork.switch1.stp forwardDelay 6s
attr unit s
par SwitchNetwork.switch1.stp maxAge 20s
attr unit s
par SwitchNetwork.switch1.stp migrateTime 3s
attr unit s
par SwitchNetwork.switch1.stp tcWhileTime 6s
attr unit s
par SwitchNetwork.switch1.stp bridgePriority 32768
par SwitchNetwork.switch1.stp interfaceTableModule "\"SwitchNetwork.switch1.interfaceTable\""
par SwitchNetwork.switch1.stp macTableModule "\"SwitchNetwork.switch1.macTable\""
par SwitchNetwork.switch1.stp visualize true
par SwitchNetwork.switch1.stp autoEdge true
par SwitchNetwork.switch1.sc typename "\"inet.common.MessageDispatcher\""
par SwitchNetwork.switch1.sc displayStringTextFormat "\"processed %p pk (%l)\""
par SwitchNetwork.switch1.sc forwardServiceRegistration true
par SwitchNetwork.switch1.sc forwardProtocolRegistration true
par SwitchNetwork.switch1.llc typename "\"inet.linklayer.ieee8022.Ieee8022Llc\""
par SwitchNetwork.switch1.llc registerProtocol true
par SwitchNetwork.switch1.cb typename "\"inet.common.MessageDispatcher\""
par SwitchNetwork.switch1.cb displayStringTextFormat "\"processed %p pk (%l)\""
par SwitchNetwork.switch1.cb forwardServiceRegistration true
par SwitchNetwork.switch1.cb forwardProtocolRegistration true
par SwitchNetwork.switch1.bridging typename "\"inet.linklayer.ieee8021d.relay.Ieee8021dRelay\""
par SwitchNetwork.switch1.bridging macTableModule "\"SwitchNetwork.switch1.macTable\""
par SwitchNetwork.switch1.bridging interfaceTableModule "\"SwitchNetwork.switch1.interfaceTable\""
par SwitchNetwork.switch1.bridging displayStringTextFormat "\"proc: %p\\ndisc: %d\""
scalar SwitchNetwork.switch1.bridging "processed frames" 0
scalar SwitchNetwork.switch1.bridging "discarded frames" 0
scalar SwitchNetwork.switch1.bridging "number of received BPDUs from STP module" 0
scalar SwitchNetwork.switch1.bridging "number of received frames from network (including BPDUs)" 13
scalar SwitchNetwork.switch1.bridging "number of dropped frames (including BPDUs)" 0
scalar SwitchNetwork.switch1.bridging "number of delivered BPDUs to the STP module" 0
scalar SwitchNetwork.switch1.bridging "number of dispatched BPDU frames to the network" 0
scalar SwitchNetwork.switch1.bridging "number of dispatched non-BDPU frames to the network" 0
scalar SwitchNetwork.switch1.bridging packetDropped:count 0
attr interpolationmode none
attr recordingmode count
attr title "packets dropped, count"
scalar SwitchNetwork.switch1.bridging packetDropped:sum(packetBytes) 0
attr interpolationmode none
attr recordingmode sum(packetBytes)
attr title "packets dropped, sum(packetBytes)"
par SwitchNetwork.switch1.bl typename "\"inet.common.MessageDispatcher\""
par SwitchNetwork.switch1.bl displayStringTextFormat "\"processed %p pk (%l)\""
par SwitchNetwork.switch1.bl forwardServiceRegistration true
par SwitchNetwork.switch1.bl forwardProtocolRegistration true
par SwitchNetwork.switch1.ethernet.fcsInserter.out.channel typename "\"ned.IdealChannel\""
par SwitchNetwork.switch1.ethernet.lowerLayerIn.channel typename "\"ned.IdealChannel\""
par SwitchNetwork.switch1.ethernet.upperLayerIn.channel typename "\"ned.IdealChannel\""
par SwitchNetwork.switch1.ethernet.macHeaderChecker.out.channel typename "\"ned.IdealChannel\""
par SwitchNetwork.switch1.ethernet.macHeaderInserter typename "\"inet.linklayer.ethernet.modular.EthernetMacHeaderInserter\""
par SwitchNetwork.switch1.ethernet.macHeaderInserter displayStringTextFormat "\"processed %p pk (%l)\""
par SwitchNetwork.switch1.ethernet.macHeaderInserter interfaceTableModule "\"SwitchNetwork.switch1.interfaceTable\""
scalar SwitchNetwork.switch1.ethernet.macHeaderInserter outgoingPackets:count 15
attr recordingmode count
attr source "merge(packetPushedOut, packetPulledOut)"
attr title "outgoing packets, count"
attr unit pk
scalar SwitchNetwork.switch1.ethernet.macHeaderInserter outgoingPacketLengths:sum 6240
attr interpolationmode none
attr recordingmode sum
attr source "packetLength(merge(packetPushedOut, packetPulledOut))"
attr title "outgoing packet lengths, sum"
attr unit b
statistic SwitchNetwork.switch1.ethernet.macHeaderInserter outgoingPacketLengths:histogram
field count 15
field mean 416
field stddev 0
field min 416
field max 416
field sum 6240
field sqrsum 2595840
attr interpolationmode none
attr recordingmode histogram
attr source "packetLength(merge(packetPushedOut, packetPulledOut))"
attr title "outgoing packet lengths"
attr unit b
bin	-inf	0
bin	415	0
bin	416	15
bin	417	0
scalar SwitchNetwork.switch1.ethernet.macHeaderInserter flowOutgoingPacketLengths:sum 0
attr interpolationmode none
attr recordingmode sum
attr source "packetLength(demuxFlow(merge(packetPushedOut, packetPulledOut)))"
attr title "flow specific outgoing packet lengths, sum"
attr unit b
statistic SwitchNetwork.switch1.ethernet.macHeaderInserter flowOutgoingPacketLengths:histogram
field count 0
field mean -nan
field stddev nan
field min nan
field max nan
field sum 0
field sqrsum 0
attr interpolationmode none
attr recordingmode histogram
attr source "packetLength(demuxFlow(merge(packetPushedOut, packetPulledOut)))"
attr title "flow specific outgoing packet lengths"
attr unit b
bin	-inf	0
bin	0	0
bin	1	0
scalar SwitchNetwork.switch1.ethernet.macHeaderInserter incomingPackets:count 15
attr recordingmode count
attr source "merge(packetPushedIn, packetPulledIn)"
attr title "incoming packets, count"
attr unit pk
scalar SwitchNetwork.switch1.ethernet.macHeaderInserter incomingPacketLengths:sum 4560
attr interpolationmode none
attr recordingmode sum
attr source "packetLength(merge(packetPushedIn, packetPulledIn))"
attr title "incoming packet lengths, sum"
attr unit b
statistic SwitchNetwork.switch1.ethernet.macHeaderInserter incomingPacketLengths:histogram
field count 15
field mean 304
field stddev 0
field min 304
field max 304
field sum 4560
field sqrsum 1386240
attr interpolationmode none
attr recordingmode histogram
attr source "packetLength(merge(packetPushedIn, packetPulledIn))"
attr title "incoming packet lengths"
attr unit b
bin	-inf	0
bin	303	0
bin	304	15
bin	305	0
scalar SwitchNetwork.switch1.ethernet.macHeaderInserter flowIncomingPacketLengths:sum 0
attr interpolationmode none
attr recordingmode sum
attr source "packetLength(demuxFlow(merge(packetPushedIn, packetPulledIn)))"
attr title "flow specific incoming packet lengths, sum"
attr unit b
statistic SwitchNetwork.switch1.ethernet.macHeaderInserter flowIncomingPacketLengths:histogram
field count 0
field mean -nan
field stddev nan
field min nan
field max nan
field sum 0
field sqrsum 0
attr interpolationmode none
attr recordingmode histogram
attr source "packetLength(demuxFlow(merge(packetPushedIn, packetPulledIn)))"
attr title "flow specific incoming packet lengths"
attr unit b
bin	-inf	0
bin	0	0
bin	1	0
par SwitchNetwork.switch1.ethernet.paddingInserter typename "\"inet.protocolelement.common.PaddingInserter\""
par SwitchNetwork.switch1.ethernet.paddingInserter displayStringTextFormat "\"processed %p pk (%l)\""
par SwitchNetwork.switch1.ethernet.paddingInserter minLength 480b
attr unit b
par SwitchNetwork.switch1.ethernet.paddingInserter roundingLength 8b
attr unit b
par SwitchNetwork.switch1.ethernet.paddingInserter insertionPosition "\"back\""
attr enum front,back
scalar SwitchNetwork.switch1.ethernet.paddingInserter outgoingPackets:count 15
attr recordingmode count
attr source "merge(packetPushedOut, packetPulledOut)"
attr title "outgoing packets, count"
attr unit pk
scalar SwitchNetwork.switch1.ethernet.paddingInserter outgoingPacketLengths:sum 7200
attr interpolationmode none
attr recordingmode sum
attr source "packetLength(merge(packetPushedOut, packetPulledOut))"
attr title "outgoing packet lengths, sum"
attr unit b
statistic SwitchNetwork.switch1.ethernet.paddingInserter outgoingPacketLengths:histogram
field count 15
field mean 480
field stddev 0
field min 480
field max 480
field sum 7200
field sqrsum 3456000
attr interpolationmode none
attr recordingmode histogram
attr source "packetLength(merge(packetPushedOut, packetPulledOut))"
attr title "outgoing packet lengths"
attr unit b
bin	-inf	0
bin	479	0
bin	480	15
bin	481	0
scalar SwitchNetwork.switch1.ethernet.paddingInserter flowOutgoingPacketLengths:sum 0
attr interpolationmode none
attr recordingmode sum
attr source "packetLength(demuxFlow(merge(packetPushedOut, packetPulledOut)))"
attr title "flow specific outgoing packet lengths, sum"
attr unit b
statistic SwitchNetwork.switch1.ethernet.paddingInserter flowOutgoingPacketLengths:histogram
field count 0
field mean -nan
field stddev nan
field min nan
field max nan
field sum 0
field sqrsum 0
attr interpolationmode none
attr recordingmode histogram
attr source "packetLength(demuxFlow(merge(packetPushedOut, packetPulledOut)))"
attr title "flow specific outgoing packet lengths"
attr unit b
bin	-inf	0
bin	0	0
bin	1	0
scalar SwitchNetwork.switch1.ethernet.paddingInserter incomingPackets:count 15
attr recordingmode count
attr source "merge(packetPushedIn, packetPulledIn)"
attr title "incoming packets, count"
attr unit pk
scalar SwitchNetwork.switch1.ethernet.paddingInserter incomingPacketLengths:sum 6240
attr interpolationmode none
attr recordingmode sum
attr source "packetLength(merge(packetPushedIn, packetPulledIn))"
attr title "incoming packet lengths, sum"
attr unit b
statistic SwitchNetwork.switch1.ethernet.paddingInserter incomingPacketLengths:histogram
field count 15
field mean 416
field stddev 0
field min 416
field max 416
field sum 6240
field sqrsum 2595840
attr interpolationmode none
attr recordingmode histogram
attr source "packetLength(merge(packetPushedIn, packetPulledIn))"
attr title "incoming packet lengths"
attr unit b
bin	-inf	0
bin	415	0
bin	416	15
bin	417	0
scalar SwitchNetwork.switch1.ethernet.paddingInserter flowIncomingPacketLengths:sum 0
attr interpolationmode none
attr recordingmode sum
attr source "packetLength(demuxFlow(merge(packetPushedIn, packetPulledIn)))"
attr title "flow specific incoming packet lengths, sum"
attr unit b
statistic SwitchNetwork.switch1.ethernet.paddingInserter flowIncomingPacketLengths:histogram
field count 0
field mean -nan
field stddev nan
field min nan
field max nan
field sum 0
field sqrsum 0
attr interpolationmode none
attr recordingmode histogram
attr source "packetLength(demuxFlow(merge(packetPushedIn, packetPulledIn)))"
attr title "flow specific incoming packet lengths"
attr unit b
bin	-inf	0
bin	0	0
bin	1	0
par SwitchNetwork.switch1.ethernet.fcsInserter typename "\"inet.linklayer.ethernet.modular.EthernetFcsInserter\""
par SwitchNetwork.switch1.ethernet.fcsInserter displayStringTextFormat "\"processed %p pk (%l)\""
par SwitchNetwork.switch1.ethernet.fcsInserter fcsMode "\"declared\""
attr enum disabled,declared,computed
scalar SwitchNetwork.switch1.ethernet.fcsInserter outgoingPackets:count 15
attr recordingmode count
attr source "merge(packetPushedOut, packetPulledOut)"
attr title "outgoing packets, count"
attr unit pk
scalar SwitchNetwork.switch1.ethernet.fcsInserter outgoingPacketLengths:sum 7680
attr interpolationmode none
attr recordingmode sum
attr source "packetLength(merge(packetPushedOut, packetPulledOut))"
attr title "outgoing packet lengths, sum"
attr unit b
statistic SwitchNetwork.switch1.ethernet.fcsInserter outgoingPacketLengths:histogram
field count 15
field mean 512
field stddev 0
field min 512
field max 512
field sum 7680
field sqrsum 3932160
attr interpolationmode none
attr recordingmode histogram
attr source "packetLength(merge(packetPushedOut, packetPulledOut))"
attr title "outgoing packet lengths"
attr unit b
bin	-inf	0
bin	511	0
bin	512	15
bin	513	0
scalar SwitchNetwork.switch1.ethernet.fcsInserter flowOutgoingPacketLengths:sum 0
attr interpolationmode none
attr recordingmode sum
attr source "packetLength(demuxFlow(merge(packetPushedOut, packetPulledOut)))"
attr title "flow specific outgoing packet lengths, sum"
attr unit b
statistic SwitchNetwork.switch1.ethernet.fcsInserter flowOutgoingPacketLengths:histogram
field count 0
field mean -nan
field stddev nan
field min nan
field max nan
field sum 0
field sqrsum 0
attr interpolationmode none
attr recordingmode histogram
attr source "packetLength(demuxFlow(merge(packetPushedOut, packetPulledOut)))"
attr title "flow specific outgoing packet lengths"
attr unit b
bin	-inf	0
bin	0	0
bin	1	0
scalar SwitchNetwork.switch1.ethernet.fcsInserter incomingPackets:count 15
attr recordingmode count
attr source "merge(packetPushedIn, packetPulledIn)"
attr title "incoming packets, count"
attr unit pk
scalar SwitchNetwork.switch1.ethernet.fcsInserter incomingPacketLengths:sum 7200
attr interpolationmode none
attr recordingmode sum
attr source "packetLength(merge(packetPushedIn, packetPulledIn))"
attr title "incoming packet lengths, sum"
attr unit b
statistic SwitchNetwork.switch1.ethernet.fcsInserter incomingPacketLengths:histogram
field count 15
field mean 480
field stddev 0
field min 480
field max 480
field sum 7200
field sqrsum 3456000
attr interpolationmode none
attr recordingmode histogram
attr source "packetLength(merge(packetPushedIn, packetPulledIn))"
attr title "incoming packet lengths"
attr unit b
bin	-inf	0
bin	479	0
bin	480	15
bin	481	0
scalar SwitchNetwork.switch1.ethernet.fcsInserter flowIncomingPacketLengths:sum 0
attr interpolationmode none
attr recordingmode sum
attr source "packetLength(demuxFlow(merge(packetPushedIn, packetPulledIn)))"
attr title "flow specific incoming packet lengths, sum"
attr unit b
statistic SwitchNetwork.switch1.ethernet.fcsInserter flowIncomingPacketLengths:histogram
field count 0
field mean -nan
field stddev nan
field min nan
field max nan
field sum 0
field sqrsum 0
attr interpolationmode none
attr recordingmode histogram
attr source "packetLength(demuxFlow(merge(packetPushedIn, packetPulledIn)))"
attr title "flow specific incoming packet lengths"
attr unit b
bin	-inf	0
bin	0	0
bin	1	0
par SwitchNetwork.switch1.ethernet.macHeaderChecker typename "\"inet.linklayer.ethernet.modular.EthernetMacHeaderChecker\""
par SwitchNetwork.switch1.ethernet.macHeaderChecker displayStringTextFormat "\"dropped %d/%p pk (%k/%l)\""
par SwitchNetwork.switch1.ethernet.macHeaderChecker backpressure false
par SwitchNetwork.switch1.ethernet.macHeaderChecker interfaceTableModule "\"SwitchNetwork.switch1.interfaceTable\""
par SwitchNetwork.switch1.ethernet.macHeaderChecker promiscuous true
scalar SwitchNetwork.switch1.ethernet.macHeaderChecker outgoingPackets:count 13
attr recordingmode count
attr source "merge(packetPushedOut, packetPulledOut)"
attr title "outgoing packets, count"
attr unit pk
scalar SwitchNetwork.switch1.ethernet.macHeaderChecker outgoingPacketLengths:sum 4784
attr interpolationmode none
attr recordingmode sum
attr source "packetLength(merge(packetPushedOut, packetPulledOut))"
attr title "outgoing packet lengths, sum"
attr unit b
statistic SwitchNetwork.switch1.ethernet.macHeaderChecker outgoingPacketLengths:histogram
field count 13
field mean 368
field stddev 0
field min 368
field max 368
field sum 4784
field sqrsum 1760512
attr interpolationmode none
attr recordingmode histogram
attr source "packetLength(merge(packetPushedOut, packetPulledOut))"
attr title "outgoing packet lengths"
attr unit b
bin	-inf	0
bin	367	0
bin	368	13
bin	369	0
scalar SwitchNetwork.switch1.ethernet.macHeaderChecker flowOutgoingPacketLengths:sum 0
attr interpolationmode none
attr recordingmode sum
attr source "packetLength(demuxFlow(merge(packetPushedOut, packetPulledOut)))"
attr title "flow specific outgoing packet lengths, sum"
attr unit b
statistic SwitchNetwork.switch1.ethernet.macHeaderChecker flowOutgoingPacketLengths:histogram
field count 0
field mean -nan
field stddev nan
field min nan
field max nan
field sum 0
field sqrsum 0
attr interpolationmode none
attr recordingmode histogram
attr source "packetLength(demuxFlow(merge(packetPushedOut, packetPulledOut)))"
attr title "flow specific outgoing packet lengths"
attr unit b
bin	-inf	0
bin	0	0
bin	1	0
scalar SwitchNetwork.switch1.ethernet.macHeaderChecker incomingPackets:count 13
attr recordingmode count
attr source "merge(packetPushedIn, packetPulledIn)"
attr title "incoming packets, count"
attr unit pk
scalar SwitchNetwork.switch1.ethernet.macHeaderChecker incomingPacketLengths:sum 6240
attr interpolationmode none
attr recordingmode sum
attr source "packetLength(merge(packetPushedIn, packetPulledIn))"
attr title "incoming packet lengths, sum"
attr unit b
statistic SwitchNetwork.switch1.ethernet.macHeaderChecker incomingPacketLengths:histogram
field count 13
field mean 480
field stddev 0
field min 480
field max 480
field sum 6240
field sqrsum 2995200
attr interpolationmode none
attr recordingmode histogram
attr source "packetLength(merge(packetPushedIn, packetPulledIn))"
attr title "incoming packet lengths"
attr unit b
bin	-inf	0
bin	479	0
bin	480	13
bin	481	0
scalar SwitchNetwork.switch1.ethernet.macHeaderChecker flowIncomingPacketLengths:sum 0
attr interpolationmode none
attr recordingmode sum
attr source "packetLength(demuxFlow(merge(packetPushedIn, packetPulledIn)))"
attr title "flow specific incoming packet lengths, sum"
attr unit b
statistic SwitchNetwork.switch1.ethernet.macHeaderChecker flowIncomingPacketLengths:histogram
field count 0
field mean -nan
field stddev nan
field min nan
field max nan
field sum 0
field sqrsum 0
attr interpolationmode none
attr recordingmode histogram
attr source "packetLength(demuxFlow(merge(packetPushedIn, packetPulledIn)))"
attr title "flow specific incoming packet lengths"
attr unit b
bin	-inf	0
bin	0	0
bin	1	0
scalar SwitchNetwork.switch1.ethernet.macHeaderChecker droppedPackets:count 0
attr recordingmode count
attr source packetDropped
attr title "dropped packets, count"
attr unit pk
scalar SwitchNetwork.switch1.ethernet.macHeaderChecker droppedPacketLengths:sum 0
attr interpolationmode none
attr recordingmode sum
attr source packetLength(packetDropped)
attr title "dropped packet lengths, sum"
attr unit b
statistic SwitchNetwork.switch1.ethernet.macHeaderChecker droppedPacketLengths:histogram
field count 0
field mean -nan
field stddev nan
field min nan
field max nan
field sum 0
field sqrsum 0
attr interpolationmode none
attr recordingmode histogram
attr source packetLength(packetDropped)
attr title "dropped packet lengths"
attr unit b
bin	-inf	0
bin	0	0
bin	1	0
scalar SwitchNetwork.switch1.ethernet.macHeaderChecker flowDroppedPacketLengths:sum 0
attr interpolationmode none
attr recordingmode sum
attr source packetLength(demuxFlow(packetDropped))
attr title "flow specific dropped packet lengths, sum"
attr unit b
statistic SwitchNetwork.switch1.ethernet.macHeaderChecker flowDroppedPacketLengths:histogram
field count 0
field mean -nan
field stddev nan
field min nan
field max nan
field sum 0
field sqrsum 0
attr interpolationmode none
attr recordingmode histogram
attr source packetLength(demuxFlow(packetDropped))
attr title "flow specific dropped packet lengths"
attr unit b
bin	-inf	0
bin	0	0
bin	1	0
par SwitchNetwork.switch1.ethernet.fcsChecker typename "\"inet.linklayer.ethernet.modular.EthernetFcsChecker\""
par SwitchNetwork.switch1.ethernet.fcsChecker displayStringTextFormat "\"dropped %d/%p pk (%k/%l)\""
par SwitchNetwork.switch1.ethernet.fcsChecker backpressure false
par SwitchNetwork.switch1.ethernet.fcsChecker popFcs true
scalar SwitchNetwork.switch1.ethernet.fcsChecker outgoingPackets:count 13
attr recordingmode count
attr source "merge(packetPushedOut, packetPulledOut)"
attr title "outgoing packets, count"
attr unit pk
scalar SwitchNetwork.switch1.ethernet.fcsChecker outgoingPacketLengths:sum 6240
attr interpolationmode none
attr recordingmode sum
attr source "packetLength(merge(packetPushedOut, packetPulledOut))"
attr title "outgoing packet lengths, sum"
attr unit b
statistic SwitchNetwork.switch1.ethernet.fcsChecker outgoingPacketLengths:histogram
field count 13
field mean 480
field stddev 0
field min 480
field max 480
field sum 6240
field sqrsum 2995200
attr interpolationmode none
attr recordingmode histogram
attr source "packetLength(merge(packetPushedOut, packetPulledOut))"
attr title "outgoing packet lengths"
attr unit b
bin	-inf	0
bin	479	0
bin	480	13
bin	481	0
scalar SwitchNetwork.switch1.ethernet.fcsChecker flowOutgoingPacketLengths:sum 0
attr interpolationmode none
attr recordingmode sum
attr source "packetLength(demuxFlow(merge(packetPushedOut, packetPulledOut)))"
attr title "flow specific outgoing packet lengths, sum"
attr unit b
statistic SwitchNetwork.switch1.ethernet.fcsChecker flowOutgoingPacketLengths:histogram
field count 0
field mean -nan
field stddev nan
field min nan
field max nan
field sum 0
field sqrsum 0
attr interpolationmode none
attr recordingmode histogram
attr source "packetLength(demuxFlow(merge(packetPushedOut, packetPulledOut)))"
attr title "flow specific outgoing packet lengths"
attr unit b
bin	-inf	0
bin	0	0
bin	1	0
scalar SwitchNetwork.switch1.ethernet.fcsChecker incomingPackets:count 13
attr recordingmode count
attr source "merge(packetPushedIn, packetPulledIn)"
attr title "incoming packets, count"
attr unit pk
scalar SwitchNetwork.switch1.ethernet.fcsChecker incomingPacketLengths:sum 6656
attr interpolationmode none
attr recordingmode sum
attr source "packetLength(merge(packetPushedIn, packetPulledIn))"
attr title "incoming packet lengths, sum"
attr unit b
statistic SwitchNetwork.switch1.ethernet.fcsChecker incomingPacketLengths:histogram
field count 13
field mean 512
field stddev 0
field min 512
field max 512
field sum 6656
field sqrsum 3407872
attr interpolationmode none
attr recordingmode histogram
attr source "packetLength(merge(packetPushedIn, packetPulledIn))"
attr title "incoming packet lengths"
attr unit b
bin	-inf	0
bin	511	0
bin	512	13
bin	513	0
scalar SwitchNetwork.switch1.ethernet.fcsChecker flowIncomingPacketLengths:sum 0
attr interpolationmode none
attr recordingmode sum
attr source "packetLength(demuxFlow(merge(packetPushedIn, packetPulledIn)))"
attr title "flow specific incoming packet lengths, sum"
attr unit b
statistic SwitchNetwork.switch1.ethernet.fcsChecker flowIncomingPacketLengths:histogram
field count 0
field mean -nan
field stddev nan
field min nan
field max nan
field sum 0
field sqrsum 0
attr interpolationmode none
attr recordingmode histogram
attr source "packetLength(demuxFlow(merge(packetPushedIn, packetPulledIn)))"
attr title "flow specific incoming packet lengths"
attr unit b
bin	-inf	0
bin	0	0
bin	1	0
scalar SwitchNetwork.switch1.ethernet.fcsChecker droppedPackets:count 0
attr recordingmode count
attr source packetDropped
attr title "dropped packets, count"
attr unit pk
scalar SwitchNetwork.switch1.ethernet.fcsChecker droppedPacketLengths:sum 0
attr interpolationmode none
attr recordingmode sum
attr source packetLength(packetDropped)
attr title "dropped packet lengths, sum"
attr unit b
statistic SwitchNetwork.switch1.ethernet.fcsChecker droppedPacketLengths:histogram
field count 0
field mean -nan
field stddev nan
field min nan
field max nan
field sum 0
field sqrsum 0
attr interpolationmode none
attr recordingmode histogram
attr source packetLength(packetDropped)
attr title "dropped packet lengths"
attr unit b
bin	-inf	0
bin	0	0
bin	1	0
scalar SwitchNetwork.switch1.ethernet.fcsChecker flowDroppedPacketLengths:sum 0
attr interpolationmode none
attr recordingmode sum
attr source packetLength(demuxFlow(packetDropped))
attr title "flow specific dropped packet lengths, sum"
attr unit b
statistic SwitchNetwork.switch1.ethernet.fcsChecker flowDroppedPacketLengths:histogram
field count 0
field mean -nan
field stddev nan
field min nan
field max nan
field sum 0
field sqrsum 0
attr interpolationmode none
attr recordingmode histogram
attr source packetLength(demuxFlow(packetDropped))
attr title "flow specific dropped packet lengths"
attr unit b
bin	-inf	0
bin	0	0
bin	1	0
par SwitchNetwork.switch1.ethernet typename "\"inet.linklayer.ethernet.modular.EthernetLayer\""
par SwitchNetwork.switch1.ethernet interfaceTableModule "\"SwitchNetwork.switch1.interfaceTable\""
par SwitchNetwork.switch1.ethernet hasSocketSupport false
par SwitchNetwork.switch1.ieee8021q.qTagHeaderInserter.out.channel typename "\"ned.IdealChannel\""
par SwitchNetwork.switch1.ieee8021q.lowerLayerIn.channel typename "\"ned.IdealChannel\""
par SwitchNetwork.switch1.ieee8021q.upperLayerIn.channel typename "\"ned.IdealChannel\""
par SwitchNetwork.switch1.ieee8021q.qTagHeaderChecker.out.channel typename "\"ned.IdealChannel\""
par SwitchNetwork.switch1.ieee8021q.qTagHeaderInserter typename "\"inet.linklayer.ieee8021q.Ieee8021qTagEpdHeaderInserter\""
par SwitchNetwork.switch1.ieee8021q.qTagHeaderInserter displayStringTextFormat "\"processed %p pk (%l)\""
par SwitchNetwork.switch1.ieee8021q.qTagHeaderInserter vlanTagType "\"c\""
attr enum c,s
par SwitchNetwork.switch1.ieee8021q.qTagHeaderInserter nextProtocol "\"ethernetmac\""
par SwitchNetwork.switch1.ieee8021q.qTagHeaderInserter defaultVlanId -1
par SwitchNetwork.switch1.ieee8021q.qTagHeaderInserter defaultPcp -1
par SwitchNetwork.switch1.ieee8021q.qTagHeaderInserter defaultUserPriority -1
par SwitchNetwork.switch1.ieee8021q.qTagHeaderInserter defaultDropEligible -1
scalar SwitchNetwork.switch1.ieee8021q.qTagHeaderInserter outgoingPackets:count 0
attr recordingmode count
attr source "merge(packetPushedOut, packetPulledOut)"
attr title "outgoing packets, count"
attr unit pk
scalar SwitchNetwork.switch1.ieee8021q.qTagHeaderInserter outgoingPacketLengths:sum 0
attr interpolationmode none
attr recordingmode sum
attr source "packetLength(merge(packetPushedOut, packetPulledOut))"
attr title "outgoing packet lengths, sum"
attr unit b
statistic SwitchNetwork.switch1.ieee8021q.qTagHeaderInserter outgoingPacketLengths:histogram
field count 0
field mean -nan
field stddev nan
field min nan
field max nan
field sum 0
field sqrsum 0
attr interpolationmode none
attr recordingmode histogram
attr source "packetLength(merge(packetPushedOut, packetPulledOut))"
attr title "outgoing packet lengths"
attr unit b
bin	-inf	0
bin	0	0
bin	1	0
scalar SwitchNetwork.switch1.ieee8021q.qTagHeaderInserter flowOutgoingPacketLengths:sum 0
attr interpolationmode none
attr recordingmode sum
attr source "packetLength(demuxFlow(merge(packetPushedOut, packetPulledOut)))"
attr title "flow specific outgoing packet lengths, sum"
attr unit b
statistic SwitchNetwork.switch1.ieee8021q.qTagHeaderInserter flowOutgoingPacketLengths:histogram
field count 0
field mean -nan
field stddev nan
field min nan
field max nan
field sum 0
field sqrsum 0
attr interpolationmode none
attr recordingmode histogram
attr source "packetLength(demuxFlow(merge(packetPushedOut, packetPulledOut)))"
attr title "flow specific outgoing packet lengths"
attr unit b
bin	-inf	0
bin	0	0
bin	1	0
scalar SwitchNetwork.switch1.ieee8021q.qTagHeaderInserter incomingPackets:count 0
attr recordingmode count
attr source "merge(packetPushedIn, packetPulledIn)"
attr title "incoming packets, count"
attr unit pk
scalar SwitchNetwork.switch1.ieee8021q.qTagHeaderInserter incomingPacketLengths:sum 0
attr interpolationmode none
attr recordingmode sum
attr source "packetLength(merge(packetPushedIn, packetPulledIn))"
attr title "incoming packet lengths, sum"
attr unit b
statistic SwitchNetwork.switch1.ieee8021q.qTagHeaderInserter incomingPacketLengths:histogram
field count 0
field mean -nan
field stddev nan
field min nan
field max nan
field sum 0
field sqrsum 0
attr interpolationmode none
attr recordingmode histogram
attr source "packetLength(merge(packetPushedIn, packetPulledIn))"
attr title "incoming packet lengths"
attr unit b
bin	-inf	0
bin	0	0
bin	1	0
scalar SwitchNetwork.switch1.ieee8021q.qTagHeaderInserter flowIncomingPacketLengths:sum 0
attr interpolationmode none
attr recordingmode sum
attr source "packetLength(demuxFlow(merge(packetPushedIn, packetPulledIn)))"
attr title "flow specific incoming packet lengths, sum"
attr unit b
statistic SwitchNetwork.switch1.ieee8021q.qTagHeaderInserter flowIncomingPacketLengths:histogram
field count 0
field mean -nan
field stddev nan
field min nan
field max nan
field sum 0
field sqrsum 0
attr interpolationmode none
attr recordingmode histogram
attr source "packetLength(demuxFlow(merge(packetPushedIn, packetPulledIn)))"
attr title "flow specific incoming packet lengths"
attr unit b
bin	-inf	0
bin	0	0
bin	1	0
par SwitchNetwork.switch1.ieee8021q.qTagHeaderChecker typename "\"inet.linklayer.ieee8021q.Ieee8021qTagEpdHeaderChecker\""
par SwitchNetwork.switch1.ieee8021q.qTagHeaderChecker displayStringTextFormat "\"dropped %d/%p pk (%k/%l)\""
par SwitchNetwork.switch1.ieee8021q.qTagHeaderChecker backpressure false
par SwitchNetwork.switch1.ieee8021q.qTagHeaderChecker vlanTagType "\"c\""
attr enum c,s
par SwitchNetwork.switch1.ieee8021q.qTagHeaderChecker vlanIdFilter []
attr mutable ""
scalar SwitchNetwork.switch1.ieee8021q.qTagHeaderChecker outgoingPackets:count 0
attr recordingmode count
attr source "merge(packetPushedOut, packetPulledOut)"
attr title "outgoing packets, count"
attr unit pk
scalar SwitchNetwork.switch1.ieee8021q.qTagHeaderChecker outgoingPacketLengths:sum 0
attr interpolationmode none
attr recordingmode sum
attr source "packetLength(merge(packetPushedOut, packetPulledOut))"
attr title "outgoing packet lengths, sum"
attr unit b
statistic SwitchNetwork.switch1.ieee8021q.qTagHeaderChecker outgoingPacketLengths:histogram
field count 0
field mean -nan
field stddev nan
field min nan
field max nan
field sum 0
field sqrsum 0
attr interpolationmode none
attr recordingmode histogram
attr source "packetLength(merge(packetPushedOut, packetPulledOut))"
attr title "outgoing packet lengths"
attr unit b
bin	-inf	0
bin	0	0
bin	1	0
scalar SwitchNetwork.switch1.ieee8021q.qTagHeaderChecker flowOutgoingPacketLengths:sum 0
attr interpolationmode none
attr recordingmode sum
attr source "packetLength(demuxFlow(merge(packetPushedOut, packetPulledOut)))"
attr title "flow specific outgoing packet lengths, sum"
attr unit b
statistic SwitchNetwork.switch1.ieee8021q.qTagHeaderChecker flowOutgoingPacketLengths:histogram
field count 0
field mean -nan
field stddev nan
field min nan
field max nan
field sum 0
field sqrsum 0
attr interpolationmode none
attr recordingmode histogram
attr source "packetLength(demuxFlow(merge(packetPushedOut, packetPulledOut)))"
attr title "flow specific outgoing packet lengths"
attr unit b
bin	-inf	0
bin	0	0
bin	1	0
scalar SwitchNetwork.switch1.ieee8021q.qTagHeaderChecker incomingPackets:count 0
attr recordingmode count
attr source "merge(packetPushedIn, packetPulledIn)"
attr title "incoming packets, count"
attr unit pk
scalar SwitchNetwork.switch1.ieee8021q.qTagHeaderChecker incomingPacketLengths:sum 0
attr interpolationmode none
attr recordingmode sum
attr source "packetLength(merge(packetPushedIn, packetPulledIn))"
attr title "incoming packet lengths, sum"
attr unit b
statistic SwitchNetwork.switch1.ieee8021q.qTagHeaderChecker incomingPacketLengths:histogram
field count 0
field mean -nan
field stddev nan
field min nan
field max nan
field sum 0
field sqrsum 0
attr interpolationmode none
attr recordingmode histogram
attr source "packetLength(merge(packetPushedIn, packetPulledIn))"
attr title "incoming packet lengths"
attr unit b
bin	-inf	0
bin	0	0
bin	1	0
scalar SwitchNetwork.switch1.ieee8021q.qTagHeaderChecker flowIncomingPacketLengths:sum 0
attr interpolationmode none
attr recordingmode sum
attr source "packetLength(demuxFlow(merge(packetPushedIn, packetPulledIn)))"
attr title "flow specific incoming packet lengths, sum"
attr unit b
statistic SwitchNetwork.switch1.ieee8021q.qTagHeaderChecker flowIncomingPacketLengths:histogram
field count 0
field mean -nan
field stddev nan
field min nan
field max nan
field sum 0
field sqrsum 0
attr interpolationmode none
attr recordingmode histogram
attr source "packetLength(demuxFlow(merge(packetPushedIn, packetPulledIn)))"
attr title "flow specific incoming packet lengths"
attr unit b
bin	-inf	0
bin	0	0
bin	1	0
scalar SwitchNetwork.switch1.ieee8021q.qTagHeaderChecker droppedPackets:count 0
attr recordingmode count
attr source packetDropped
attr title "dropped packets, count"
attr unit pk
scalar SwitchNetwork.switch1.ieee8021q.qTagHeaderChecker droppedPacketLengths:sum 0
attr interpolationmode none
attr recordingmode sum
attr source packetLength(packetDropped)
attr title "dropped packet lengths, sum"
attr unit b
statistic SwitchNetwork.switch1.ieee8021q.qTagHeaderChecker droppedPacketLengths:histogram
field count 0
field mean -nan
field stddev nan
field min nan
field max nan
field sum 0
field sqrsum 0
attr interpolationmode none
attr recordingmode histogram
attr source packetLength(packetDropped)
attr title "dropped packet lengths"
attr unit b
bin	-inf	0
bin	0	0
bin	1	0
scalar SwitchNetwork.switch1.ieee8021q.qTagHeaderChecker flowDroppedPacketLengths:sum 0
attr interpolationmode none
attr recordingmode sum
attr source packetLength(demuxFlow(packetDropped))
attr title "flow specific dropped packet lengths, sum"
attr unit b
statistic SwitchNetwork.switch1.ieee8021q.qTagHeaderChecker flowDroppedPacketLengths:histogram
field count 0
field mean -nan
field stddev nan
field min nan
field max nan
field sum 0
field sqrsum 0
attr interpolationmode none
attr recordingmode histogram
attr source packetLength(demuxFlow(packetDropped))
attr title "flow specific dropped packet lengths"
attr unit b
bin	-inf	0
bin	0	0
bin	1	0
par SwitchNetwork.switch1.ieee8021q typename "\"inet.linklayer.ieee8021q.Ieee8021qProtocol\""
par SwitchNetwork.switch1.ieee8021q vlanTagType "\"c\""
par SwitchNetwork.switch1.ieee8021q hasSocketSupport false
par SwitchNetwork.switch1.ieee8021r.upperLayerIn.channel typename "\"ned.IdealChannel\""
par SwitchNetwork.switch1.ieee8021r.rTagHeaderInserter.out.channel typename "\"ned.IdealChannel\""
par SwitchNetwork.switch1.ieee8021r.lowerLayerIn.channel typename "\"ned.IdealChannel\""
par SwitchNetwork.switch1.ieee8021r.rTagHeaderChecker.out.channel typename "\"ned.IdealChannel\""
par SwitchNetwork.switch1.ieee8021r.rTagHeaderInserter typename "\"inet.linklayer.ieee8021r.Ieee8021rTagEpdHeaderInserter\""
par SwitchNetwork.switch1.ieee8021r.rTagHeaderInserter displayStringTextFormat "\"processed %p pk (%l)\""
par SwitchNetwork.switch1.ieee8021r.rTagHeaderInserter nextProtocol "\"ieee8021qctag\""
scalar SwitchNetwork.switch1.ieee8021r.rTagHeaderInserter outgoingPackets:count 0
attr recordingmode count
attr source "merge(packetPushedOut, packetPulledOut)"
attr title "outgoing packets, count"
attr unit pk
scalar SwitchNetwork.switch1.ieee8021r.rTagHeaderInserter outgoingPacketLengths:sum 0
attr interpolationmode none
attr recordingmode sum
attr source "packetLength(merge(packetPushedOut, packetPulledOut))"
attr title "outgoing packet lengths, sum"
attr unit b
statistic SwitchNetwork.switch1.ieee8021r.rTagHeaderInserter outgoingPacketLengths:histogram
field count 0
field mean -nan
field stddev nan
field min nan
field max nan
field sum 0
field sqrsum 0
attr interpolationmode none
attr recordingmode histogram
attr source "packetLength(merge(packetPushedOut, packetPulledOut))"
attr title "outgoing packet lengths"
attr unit b
bin	-inf	0
bin	0	0
bin	1	0
scalar SwitchNetwork.switch1.ieee8021r.rTagHeaderInserter flowOutgoingPacketLengths:sum 0
attr interpolationmode none
attr recordingmode sum
attr source "packetLength(demuxFlow(merge(packetPushedOut, packetPulledOut)))"
attr title "flow specific outgoing packet lengths, sum"
attr unit b
statistic SwitchNetwork.switch1.ieee8021r.rTagHeaderInserter flowOutgoingPacketLengths:histogram
field count 0
field mean -nan
field stddev nan
field min nan
field max nan
field sum 0
field sqrsum 0
attr interpolationmode none
attr recordingmode histogram
attr source "packetLength(demuxFlow(merge(packetPushedOut, packetPulledOut)))"
attr title "flow specific outgoing packet lengths"
attr unit b
bin	-inf	0
bin	0	0
bin	1	0
scalar SwitchNetwork.switch1.ieee8021r.rTagHeaderInserter incomingPackets:count 0
attr recordingmode count
attr source "merge(packetPushedIn, packetPulledIn)"
attr title "incoming packets, count"
attr unit pk
scalar SwitchNetwork.switch1.ieee8021r.rTagHeaderInserter incomingPacketLengths:sum 0
attr interpolationmode none
attr recordingmode sum
attr source "packetLength(merge(packetPushedIn, packetPulledIn))"
attr title "incoming packet lengths, sum"
attr unit b
statistic SwitchNetwork.switch1.ieee8021r.rTagHeaderInserter incomingPacketLengths:histogram
field count 0
field mean -nan
field stddev nan
field min nan
field max nan
field sum 0
field sqrsum 0
attr interpolationmode none
attr recordingmode histogram
attr source "packetLength(merge(packetPushedIn, packetPulledIn))"
attr title "incoming packet lengths"
attr unit b
bin	-inf	0
bin	0	0
bin	1	0
scalar SwitchNetwork.switch1.ieee8021r.rTagHeaderInserter flowIncomingPacketLengths:sum 0
attr interpolationmode none
attr recordingmode sum
attr source "packetLength(demuxFlow(merge(packetPushedIn, packetPulledIn)))"
attr title "flow specific incoming packet lengths, sum"
attr unit b
statistic SwitchNetwork.switch1.ieee8021r.rTagHeaderInserter flowIncomingPacketLengths:histogram
field count 0
field mean -nan
field stddev nan
field min nan
field max nan
field sum 0
field sqrsum 0
attr interpolationmode none
attr recordingmode histogram
attr source "packetLength(demuxFlow(merge(packetPushedIn, packetPulledIn)))"
attr title "flow specific incoming packet lengths"
attr unit b
bin	-inf	0
bin	0	0
bin	1	0
par SwitchNetwork.switch1.ieee8021r.rTagHeaderChecker typename "\"inet.linklayer.ieee8021r.Ieee8021rTagEpdHeaderChecker\""
par SwitchNetwork.switch1.ieee8021r.rTagHeaderChecker displayStringTextFormat "\"dropped %d/%p pk (%k/%l)\""
par SwitchNetwork.switch1.ieee8021r.rTagHeaderChecker backpressure false
scalar SwitchNetwork.switch1.ieee8021r.rTagHeaderChecker outgoingPackets:count 0
attr recordingmode count
attr source "merge(packetPushedOut, packetPulledOut)"
attr title "outgoing packets, count"
attr unit pk
scalar SwitchNetwork.switch1.ieee8021r.rTagHeaderChecker outgoingPacketLengths:sum 0
attr interpolationmode none
attr recordingmode sum
attr source "packetLength(merge(packetPushedOut, packetPulledOut))"
attr title "outgoing packet lengths, sum"
attr unit b
statistic SwitchNetwork.switch1.ieee8021r.rTagHeaderChecker outgoingPacketLengths:histogram
field count 0
field mean -nan
field stddev nan
field min nan
field max nan
field sum 0
field sqrsum 0
attr interpolationmode none
attr recordingmode histogram
attr source "packetLength(merge(packetPushedOut, packetPulledOut))"
attr title "outgoing packet lengths"
attr unit b
bin	-inf	0
bin	0	0
bin	1	0
scalar SwitchNetwork.switch1.ieee8021r.rTagHeaderChecker flowOutgoingPacketLengths:sum 0
attr interpolationmode none
attr recordingmode sum
attr source "packetLength(demuxFlow(merge(packetPushedOut, packetPulledOut)))"
attr title "flow specific outgoing packet lengths, sum"
attr unit b
statistic SwitchNetwork.switch1.ieee8021r.rTagHeaderChecker flowOutgoingPacketLengths:histogram
field count 0
field mean -nan
field stddev nan
field min nan
field max nan
field sum 0
field sqrsum 0
attr interpolationmode none
attr recordingmode histogram
attr source "packetLength(demuxFlow(merge(packetPushedOut, packetPulledOut)))"
attr title "flow specific outgoing packet lengths"
attr unit b
bin	-inf	0
bin	0	0
bin	1	0
scalar SwitchNetwork.switch1.ieee8021r.rTagHeaderChecker incomingPackets:count 0
attr recordingmode count
attr source "merge(packetPushedIn, packetPulledIn)"
attr title "incoming packets, count"
attr unit pk
scalar SwitchNetwork.switch1.ieee8021r.rTagHeaderChecker incomingPacketLengths:sum 0
attr interpolationmode none
attr recordingmode sum
attr source "packetLength(merge(packetPushedIn, packetPulledIn))"
attr title "incoming packet lengths, sum"
attr unit b
statistic SwitchNetwork.switch1.ieee8021r.rTagHeaderChecker incomingPacketLengths:histogram
field count 0
field mean -nan
field stddev nan
field min nan
field max nan
field sum 0
field sqrsum 0
attr interpolationmode none
attr recordingmode histogram
attr source "packetLength(merge(packetPushedIn, packetPulledIn))"
attr title "incoming packet lengths"
attr unit b
bin	-inf	0
bin	0	0
bin	1	0
scalar SwitchNetwork.switch1.ieee8021r.rTagHeaderChecker flowIncomingPacketLengths:sum 0
attr interpolationmode none
attr recordingmode sum
attr source "packetLength(demuxFlow(merge(packetPushedIn, packetPulledIn)))"
attr title "flow specific incoming packet lengths, sum"
attr unit b
statistic SwitchNetwork.switch1.ieee8021r.rTagHeaderChecker flowIncomingPacketLengths:histogram
field count 0
field mean -nan
field stddev nan
field min nan
field max nan
field sum 0
field sqrsum 0
attr interpolationmode none
attr recordingmode histogram
attr source "packetLength(demuxFlow(merge(packetPushedIn, packetPulledIn)))"
attr title "flow specific incoming packet lengths"
attr unit b
bin	-inf	0
bin	0	0
bin	1	0
scalar SwitchNetwork.switch1.ieee8021r.rTagHeaderChecker droppedPackets:count 0
attr recordingmode count
attr source packetDropped
attr title "dropped packets, count"
attr unit pk
scalar SwitchNetwork.switch1.ieee8021r.rTagHeaderChecker droppedPacketLengths:sum 0
attr interpolationmode none
attr recordingmode sum
attr source packetLength(packetDropped)
attr title "dropped packet lengths, sum"
attr unit b
statistic SwitchNetwork.switch1.ieee8021r.rTagHeaderChecker droppedPacketLengths:histogram
field count 0
field mean -nan
field stddev nan
field min nan
field max nan
field sum 0
field sqrsum 0
attr interpolationmode none
attr recordingmode histogram
attr source packetLength(packetDropped)
attr title "dropped packet lengths"
attr unit b
bin	-inf	0
bin	0	0
bin	1	0
scalar SwitchNetwork.switch1.ieee8021r.rTagHeaderChecker flowDroppedPacketLengths:sum 0
attr interpolationmode none
attr recordingmode sum
attr source packetLength(demuxFlow(packetDropped))
attr title "flow specific dropped packet lengths, sum"
attr unit b
statistic SwitchNetwork.switch1.ieee8021r.rTagHeaderChecker flowDroppedPacketLengths:histogram
field count 0
field mean -nan
field stddev nan
field min nan
field max nan
field sum 0
field sqrsum 0
attr interpolationmode none
attr recordingmode histogram
attr source packetLength(demuxFlow(packetDropped))
attr title "flow specific dropped packet lengths"
attr unit b
bin	-inf	0
bin	0	0
bin	1	0
par SwitchNetwork.switch1.ieee8021r typename "\"inet.linklayer.ieee8021r.Ieee8021rProtocol\""
par SwitchNetwork.switch1.li typename "\"inet.common.MessageDispatcher\""
par SwitchNetwork.switch1.li displayStringTextFormat "\"processed %p pk (%l)\""
par SwitchNetwork.switch1.li forwardServiceRegistration true
par SwitchNetwork.switch1.li forwardProtocolRegistration true
par SwitchNetwork.switch1.eth[0].phyLayer.lowerLayerOut.channel typename "\"ned.IdealChannel\""
par SwitchNetwork.switch1.eth[0].phys$i.channel typename "\"ned.IdealChannel\""
par SwitchNetwork.switch1.eth[0].upperLayerIn.channel typename "\"ned.IdealChannel\""
par SwitchNetwork.switch1.eth[0].macLayer.upperLayerOut.channel typename "\"ned.IdealChannel\""
par SwitchNetwork.switch1.eth[0].macLayer.upperLayerIn.channel typename "\"ned.IdealChannel\""
par SwitchNetwork.switch1.eth[0].macLayer.outboundEmitter.out.channel typename "\"ned.IdealChannel\""
par SwitchNetwork.switch1.eth[0].macLayer.lowerLayerIn.channel typename "\"ned.IdealChannel\""
par SwitchNetwork.switch1.eth[0].macLayer.fcsChecker.out.channel typename "\"ned.IdealChannel\""
par SwitchNetwork.switch1.eth[0].macLayer.queue typename "\"inet.queueing.queue.PacketQueue\""
par SwitchNetwork.switch1.eth[0].macLayer.queue displayStringTextFormat "\"contains %p pk (%l) pushed %u\\npulled %o removed %r dropped %d\""
par SwitchNetwork.switch1.eth[0].macLayer.queue packetCapacity -1
par SwitchNetwork.switch1.eth[0].macLayer.queue dataCapacity -1b
attr unit b
par SwitchNetwork.switch1.eth[0].macLayer.queue dropperClass "\"\""
par SwitchNetwork.switch1.eth[0].macLayer.queue comparatorClass "\"\""
par SwitchNetwork.switch1.eth[0].macLayer.queue bufferModule "\"\""
scalar SwitchNetwork.switch1.eth[0].macLayer.queue queueLength:last 0
attr autoWarmupFilter false
attr interpolationmode sample-hold
attr recordingmode last
attr source "warmup(atomic(constant0(packetPushEnded) + count(packetPushStarted) - count(packetPulled) - count(packetRemoved) - count(packetDropped)))"
attr title "queue length, last"
attr unit pk
scalar SwitchNetwork.switch1.eth[0].macLayer.queue queueLength:max 1
attr autoWarmupFilter false
attr interpolationmode sample-hold
attr recordingmode max
attr source "warmup(atomic(constant0(packetPushEnded) + count(packetPushStarted) - count(packetPulled) - count(packetRemoved) - count(packetDropped)))"
attr title "queue length, max"
attr unit pk
scalar SwitchNetwork.switch1.eth[0].macLayer.queue queueLength:timeavg 5.75e-09
attr autoWarmupFilter false
attr interpolationmode sample-hold
attr recordingmode timeavg
attr source "warmup(atomic(constant0(packetPushEnded) + count(packetPushStarted) - count(packetPulled) - count(packetRemoved) - count(packetDropped)))"
attr title "queue length, timeavg"
attr unit pk
scalar SwitchNetwork.switch1.eth[0].macLayer.queue queueBitLength:last 0
attr autoWarmupFilter false
attr interpolationmode sample-hold
attr recordingmode last
attr source "warmup(atomic(constant0(packetPushEnded) + sum(packetLength(packetPushStarted)) - sum(packetLength(packetPulled)) - sum(packetLength(packetRemoved)) - sum(packetLength(packetDropped))))"
attr title "queue bit length, last"
attr unit b
scalar SwitchNetwork.switch1.eth[0].macLayer.queue queueBitLength:max 512
attr autoWarmupFilter false
attr interpolationmode sample-hold
attr recordingmode max
attr source "warmup(atomic(constant0(packetPushEnded) + sum(packetLength(packetPushStarted)) - sum(packetLength(packetPulled)) - sum(packetLength(packetRemoved)) - sum(packetLength(packetDropped))))"
attr title "queue bit length, max"
attr unit b
scalar SwitchNetwork.switch1.eth[0].macLayer.queue queueBitLength:timeavg 2.944e-06
attr autoWarmupFilter false
attr interpolationmode sample-hold
attr recordingmode timeavg
attr source "warmup(atomic(constant0(packetPushEnded) + sum(packetLength(packetPushStarted)) - sum(packetLength(packetPulled)) - sum(packetLength(packetRemoved)) - sum(packetLength(packetDropped))))"
attr title "queue bit length, timeavg"
attr unit b
statistic SwitchNetwork.switch1.eth[0].macLayer.queue queueingTime:histogram
field count 10
field mean 9.2e-09
field stddev 1.9395302982366e-08
field min 0
field max 4.6e-08
field sum 9.2e-08
field sqrsum 4.232e-15
attr interpolationmode none
attr recordingmode histogram
attr source queueingTime(packetPulled)
attr title "queueing times"
attr unit s
bin	-inf	0
bin	0	8
bin	1e-09	0
bin	2e-09	0
bin	3e-09	0
bin	4e-09	0
bin	5e-09	0
bin	6e-09	0
bin	7e-09	0
bin	8e-09	0
bin	9e-09	0
bin	1e-08	0
bin	1.1e-08	0
bin	1.2e-08	0
bin	1.3e-08	0
bin	1.4e-08	0
bin	1.5e-08	0
bin	1.6e-08	0
bin	1.7e-08	0
bin	1.8e-08	0
bin	1.9e-08	0
bin	2e-08	0
bin	2.1e-08	0
bin	2.2e-08	0
bin	2.3e-08	0
bin	2.4e-08	0
bin	2.5e-08	0
bin	2.6e-08	0
bin	2.7e-08	0
bin	2.8e-08	0
bin	2.9e-08	0
bin	3e-08	0
bin	3.1e-08	0
bin	3.2e-08	0
bin	3.3e-08	0
bin	3.4e-08	0
bin	3.5e-08	0
bin	3.6e-08	0
bin	3.7e-08	0
bin	3.8e-08	0
bin	3.9e-08	0
bin	4e-08	0
bin	4.1e-08	0
bin	4.2e-08	0
bin	4.3e-08	0
bin	4.4e-08	0
bin	4.5e-08	2
bin	4.6e-08	0
bin	4.7e-08	0
bin	4.8e-08	0
bin	4.9e-08	0
bin	5e-08	0
bin	5.1e-08	0
bin	5.2e-08	0
bin	5.3e-08	0
bin	5.4e-08	0
bin	5.5e-08	0
bin	5.6e-08	0
bin	5.7e-08	0
bin	5.8e-08	0
scalar SwitchNetwork.switch1.eth[0].macLayer.queue outgoingPackets:count 10
attr recordingmode count
attr source packetPulled
attr title "outgoing packets, count"
attr unit pk
scalar SwitchNetwork.switch1.eth[0].macLayer.queue outgoingPacketLengths:sum 5120
attr interpolationmode none
attr recordingmode sum
attr source packetLength(packetPulled)
attr title "outgoing packet lengths, sum"
attr unit b
statistic SwitchNetwork.switch1.eth[0].macLayer.queue outgoingPacketLengths:histogram
field count 10
field mean 512
field stddev 0
field min 512
field max 512
field sum 5120
field sqrsum 2621440
attr interpolationmode none
attr recordingmode histogram
attr source packetLength(packetPulled)
attr title "outgoing packet lengths"
attr unit b
bin	-inf	0
bin	511	0
bin	512	10
bin	513	0
statistic SwitchNetwork.switch1.eth[0].macLayer.queue flowQueueingTime:histogram
field count 0
field mean -nan
field stddev nan
field min nan
field max nan
field sum 0
field sqrsum 0
attr interpolationmode none
attr recordingmode histogram
attr source queueingTime(demuxFlow(packetPulled))
attr title "flow queueing times"
attr unit s
bin	-inf	0
bin	0	0
bin	1	0
scalar SwitchNetwork.switch1.eth[0].macLayer.queue incomingPackets:count 10
attr recordingmode count
attr source packetPushStarted
attr title "incoming packets, count"
attr unit pk
scalar SwitchNetwork.switch1.eth[0].macLayer.queue incomingPacketLengths:sum 5120
attr interpolationmode none
attr recordingmode sum
attr source packetLength(packetPushStarted)
attr title "incoming packet lengths, sum"
attr unit b
statistic SwitchNetwork.switch1.eth[0].macLayer.queue incomingPacketLengths:histogram
field count 10
field mean 512
field stddev 0
field min 512
field max 512
field sum 5120
field sqrsum 2621440
attr interpolationmode none
attr recordingmode histogram
attr source packetLength(packetPushStarted)
attr title "incoming packet lengths"
attr unit b
bin	-inf	0
bin	511	0
bin	512	10
bin	513	0
scalar SwitchNetwork.switch1.eth[0].macLayer.queue droppedPacketsQueueOverflow:count 0
attr interpolationmode none
attr recordingmode count
attr source packetDropReasonIsQueueOverflow(packetDropped)
attr title "dropped packets: queue overflow, count"
attr unit pk
scalar SwitchNetwork.switch1.eth[0].macLayer.queue droppedPacketLengthsQueueOverflow:sum 0
attr interpolationmode none
attr recordingmode sum
attr source packetLength(packetDropReasonIsQueueOverflow(packetDropped))
attr title "dropped packet lengths: queue overflow, sum"
attr unit b
par SwitchNetwork.switch1.eth[0].macLayer.server typename "\"inet.queueing.server.InstantServer\""
par SwitchNetwork.switch1.eth[0].macLayer.server displayStringTextFormat "\"served %p pk (%l)\""
par SwitchNetwork.switch1.eth[0].macLayer.server serveSchedulingPriority -1
scalar SwitchNetwork.switch1.eth[0].macLayer.server incomingPackets:count 10
attr recordingmode count
attr source packetPulled
attr title "incoming packets, count"
attr unit pk
scalar SwitchNetwork.switch1.eth[0].macLayer.server incomingPacketLengths:sum 5120
attr interpolationmode none
attr recordingmode sum
attr source packetLength(packetPulled)
attr title "incoming packet lengths, sum"
attr unit b
statistic SwitchNetwork.switch1.eth[0].macLayer.server incomingPacketLengths:histogram
field count 10
field mean 512
field stddev 0
field min 512
field max 512
field sum 5120
field sqrsum 2621440
attr interpolationmode none
attr recordingmode histogram
attr source packetLength(packetPulled)
attr title "incoming packet lengths"
attr unit b
bin	-inf	0
bin	511	0
bin	512	10
bin	513	0
scalar SwitchNetwork.switch1.eth[0].macLayer.server outgoingPackets:count 10
attr recordingmode count
attr source packetPushed
attr title "outgoing packets, count"
attr unit pk
scalar SwitchNetwork.switch1.eth[0].macLayer.server outgoingPacketLengths:sum 5120
attr interpolationmode none
attr recordingmode sum
attr source packetLength(packetPushed)
attr title "outgoing packet lengths, sum"
attr unit b
statistic SwitchNetwork.switch1.eth[0].macLayer.server outgoingPacketLengths:histogram
field count 10
field mean 512
field stddev 0
field min 512
field max 512
field sum 5120
field sqrsum 2621440
attr interpolationmode none
attr recordingmode histogram
attr source packetLength(packetPushed)
attr title "outgoing packet lengths"
attr unit b
bin	-inf	0
bin	511	0
bin	512	10
bin	513	0
par SwitchNetwork.switch1.eth[0].macLayer.outboundEmitter typename "\"inet.protocolelement.common.PacketEmitter\""
par SwitchNetwork.switch1.eth[0].macLayer.outboundEmitter displayStringTextFormat "\"processed %p pk (%l)\""
par SwitchNetwork.switch1.eth[0].macLayer.outboundEmitter packetFilter "(omnetpp::cValueHolder)holder: \"*\""
par SwitchNetwork.switch1.eth[0].macLayer.outboundEmitter direction "\"outbound\""
attr enum undefined,inbound,outbound
par SwitchNetwork.switch1.eth[0].macLayer.outboundEmitter signalName "\"packetSentToLower\""
scalar SwitchNetwork.switch1.eth[0].macLayer.outboundEmitter outgoingPackets:count 10
attr recordingmode count
attr source "merge(packetPushedOut, packetPulledOut)"
attr title "outgoing packets, count"
attr unit pk
scalar SwitchNetwork.switch1.eth[0].macLayer.outboundEmitter outgoingPacketLengths:sum 5120
attr interpolationmode none
attr recordingmode sum
attr source "packetLength(merge(packetPushedOut, packetPulledOut))"
attr title "outgoing packet lengths, sum"
attr unit b
statistic SwitchNetwork.switch1.eth[0].macLayer.outboundEmitter outgoingPacketLengths:histogram
field count 10
field mean 512
field stddev 0
field min 512
field max 512
field sum 5120
field sqrsum 2621440
attr interpolationmode none
attr recordingmode histogram
attr source "packetLength(merge(packetPushedOut, packetPulledOut))"
attr title "outgoing packet lengths"
attr unit b
bin	-inf	0
bin	511	0
bin	512	10
bin	513	0
scalar SwitchNetwork.switch1.eth[0].macLayer.outboundEmitter flowOutgoingPacketLengths:sum 0
attr interpolationmode none
attr recordingmode sum
attr source "packetLength(demuxFlow(merge(packetPushedOut, packetPulledOut)))"
attr title "flow specific outgoing packet lengths, sum"
attr unit b
statistic SwitchNetwork.switch1.eth[0].macLayer.outboundEmitter flowOutgoingPacketLengths:histogram
field count 0
field mean -nan
field stddev nan
field min nan
field max nan
field sum 0
field sqrsum 0
attr interpolationmode none
attr recordingmode histogram
attr source "packetLength(demuxFlow(merge(packetPushedOut, packetPulledOut)))"
attr title "flow specific outgoing packet lengths"
attr unit b
bin	-inf	0
bin	0	0
bin	1	0
scalar SwitchNetwork.switch1.eth[0].macLayer.outboundEmitter incomingPackets:count 10
attr recordingmode count
attr source "merge(packetPushedIn, packetPulledIn)"
attr title "incoming packets, count"
attr unit pk
scalar SwitchNetwork.switch1.eth[0].macLayer.outboundEmitter incomingPacketLengths:sum 5120
attr interpolationmode none
attr recordingmode sum
attr source "packetLength(merge(packetPushedIn, packetPulledIn))"
attr title "incoming packet lengths, sum"
attr unit b
statistic SwitchNetwork.switch1.eth[0].macLayer.outboundEmitter incomingPacketLengths:histogram
field count 10
field mean 512
field stddev 0
field min 512
field max 512
field sum 5120
field sqrsum 2621440
attr interpolationmode none
attr recordingmode histogram
attr source "packetLength(merge(packetPushedIn, packetPulledIn))"
attr title "incoming packet lengths"
attr unit b
bin	-inf	0
bin	511	0
bin	512	10
bin	513	0
scalar SwitchNetwork.switch1.eth[0].macLayer.outboundEmitter flowIncomingPacketLengths:sum 0
attr interpolationmode none
attr recordingmode sum
attr source "packetLength(demuxFlow(merge(packetPushedIn, packetPulledIn)))"
attr title "flow specific incoming packet lengths, sum"
attr unit b
statistic SwitchNetwork.switch1.eth[0].macLayer.outboundEmitter flowIncomingPacketLengths:histogram
field count 0
field mean -nan
field stddev nan
field min nan
field max nan
field sum 0
field sqrsum 0
attr interpolationmode none
attr recordingmode histogram
attr source "packetLength(demuxFlow(merge(packetPushedIn, packetPulledIn)))"
attr title "flow specific incoming packet lengths"
attr unit b
bin	-inf	0
bin	0	0
bin	1	0
par SwitchNetwork.switch1.eth[0].macLayer.fcsChecker typename "\"inet.linklayer.ethernet.modular.EthernetFcsChecker\""
par SwitchNetwork.switch1.eth[0].macLayer.fcsChecker displayStringTextFormat "\"dropped %d/%p pk (%k/%l)\""
par SwitchNetwork.switch1.eth[0].macLayer.fcsChecker backpressure false
par SwitchNetwork.switch1.eth[0].macLayer.fcsChecker popFcs false
scalar SwitchNetwork.switch1.eth[0].macLayer.fcsChecker outgoingPackets:count 5
attr recordingmode count
attr source "merge(packetPushedOut, packetPulledOut)"
attr title "outgoing packets, count"
attr unit pk
scalar SwitchNetwork.switch1.eth[0].macLayer.fcsChecker outgoingPacketLengths:sum 2560
attr interpolationmode none
attr recordingmode sum
attr source "packetLength(merge(packetPushedOut, packetPulledOut))"
attr title "outgoing packet lengths, sum"
attr unit b
statistic SwitchNetwork.switch1.eth[0].macLayer.fcsChecker outgoingPacketLengths:histogram
field count 5
field mean 512
field stddev 0
field min 512
field max 512
field sum 2560
field sqrsum 1310720
attr interpolationmode none
attr recordingmode histogram
attr source "packetLength(merge(packetPushedOut, packetPulledOut))"
attr title "outgoing packet lengths"
attr unit b
bin	-inf	0
bin	511	0
bin	512	5
bin	513	0
scalar SwitchNetwork.switch1.eth[0].macLayer.fcsChecker flowOutgoingPacketLengths:sum 0
attr interpolationmode none
attr recordingmode sum
attr source "packetLength(demuxFlow(merge(packetPushedOut, packetPulledOut)))"
attr title "flow specific outgoing packet lengths, sum"
attr unit b
statistic SwitchNetwork.switch1.eth[0].macLayer.fcsChecker flowOutgoingPacketLengths:histogram
field count 0
field mean -nan
field stddev nan
field min nan
field max nan
field sum 0
field sqrsum 0
attr interpolationmode none
attr recordingmode histogram
attr source "packetLength(demuxFlow(merge(packetPushedOut, packetPulledOut)))"
attr title "flow specific outgoing packet lengths"
attr unit b
bin	-inf	0
bin	0	0
bin	1	0
scalar SwitchNetwork.switch1.eth[0].macLayer.fcsChecker incomingPackets:count 5
attr recordingmode count
attr source "merge(packetPushedIn, packetPulledIn)"
attr title "incoming packets, count"
attr unit pk
scalar SwitchNetwork.switch1.eth[0].macLayer.fcsChecker incomingPacketLengths:sum 2560
attr interpolationmode none
attr recordingmode sum
attr source "packetLength(merge(packetPushedIn, packetPulledIn))"
attr title "incoming packet lengths, sum"
attr unit b
statistic SwitchNetwork.switch1.eth[0].macLayer.fcsChecker incomingPacketLengths:histogram
field count 5
field mean 512
field stddev 0
field min 512
field max 512
field sum 2560
field sqrsum 1310720
attr interpolationmode none
attr recordingmode histogram
attr source "packetLength(merge(packetPushedIn, packetPulledIn))"
attr title "incoming packet lengths"
attr unit b
bin	-inf	0
bin	511	0
bin	512	5
bin	513	0
scalar SwitchNetwork.switch1.eth[0].macLayer.fcsChecker flowIncomingPacketLengths:sum 0
attr interpolationmode none
attr recordingmode sum
attr source "packetLength(demuxFlow(merge(packetPushedIn, packetPulledIn)))"
attr title "flow specific incoming packet lengths, sum"
attr unit b
statistic SwitchNetwork.switch1.eth[0].macLayer.fcsChecker flowIncomingPacketLengths:histogram
field count 0
field mean -nan
field stddev nan
field min nan
field max nan
field sum 0
field sqrsum 0
attr interpolationmode none
attr recordingmode histogram
attr source "packetLength(demuxFlow(merge(packetPushedIn, packetPulledIn)))"
attr title "flow specific incoming packet lengths"
attr unit b
bin	-inf	0
bin	0	0
bin	1	0
scalar SwitchNetwork.switch1.eth[0].macLayer.fcsChecker droppedPackets:count 0
attr recordingmode count
attr source packetDropped
attr title "dropped packets, count"
attr unit pk
scalar SwitchNetwork.switch1.eth[0].macLayer.fcsChecker droppedPacketLengths:sum 0
attr interpolationmode none
attr recordingmode sum
attr source packetLength(packetDropped)
attr title "dropped packet lengths, sum"
attr unit b
statistic SwitchNetwork.switch1.eth[0].macLayer.fcsChecker droppedPacketLengths:histogram
field count 0
field mean -nan
field stddev nan
field min nan
field max nan
field sum 0
field sqrsum 0
attr interpolationmode none
attr recordingmode histogram
attr source packetLength(packetDropped)
attr title "dropped packet lengths"
attr unit b
bin	-inf	0
bin	0	0
bin	1	0
scalar SwitchNetwork.switch1.eth[0].macLayer.fcsChecker flowDroppedPacketLengths:sum 0
attr interpolationmode none
attr recordingmode sum
attr source packetLength(demuxFlow(packetDropped))
attr title "flow specific dropped packet lengths, sum"
attr unit b
statistic SwitchNetwork.switch1.eth[0].macLayer.fcsChecker flowDroppedPacketLengths:histogram
field count 0
field mean -nan
field stddev nan
field min nan
field max nan
field sum 0
field sqrsum 0
attr interpolationmode none
attr recordingmode histogram
attr source packetLength(demuxFlow(packetDropped))
attr title "flow specific dropped packet lengths"
attr unit b
bin	-inf	0
bin	0	0
bin	1	0
par SwitchNetwork.switch1.eth[0].macLayer.inboundEmitter typename "\"inet.protocolelement.common.PacketEmitter\""
par SwitchNetwork.switch1.eth[0].macLayer.inboundEmitter displayStringTextFormat "\"processed %p pk (%l)\""
par SwitchNetwork.switch1.eth[0].macLayer.inboundEmitter packetFilter "(omnetpp::cValueHolder)holder: \"*\""
par SwitchNetwork.switch1.eth[0].macLayer.inboundEmitter direction "\"inbound\""
attr enum undefined,inbound,outbound
par SwitchNetwork.switch1.eth[0].macLayer.inboundEmitter signalName "\"packetReceivedFromLower\""
scalar SwitchNetwork.switch1.eth[0].macLayer.inboundEmitter outgoingPackets:count 5
attr recordingmode count
attr source "merge(packetPushedOut, packetPulledOut)"
attr title "outgoing packets, count"
attr unit pk
scalar SwitchNetwork.switch1.eth[0].macLayer.inboundEmitter outgoingPacketLengths:sum 2560
attr interpolationmode none
attr recordingmode sum
attr source "packetLength(merge(packetPushedOut, packetPulledOut))"
attr title "outgoing packet lengths, sum"
attr unit b
statistic SwitchNetwork.switch1.eth[0].macLayer.inboundEmitter outgoingPacketLengths:histogram
field count 5
field mean 512
field stddev 0
field min 512
field max 512
field sum 2560
field sqrsum 1310720
attr interpolationmode none
attr recordingmode histogram
attr source "packetLength(merge(packetPushedOut, packetPulledOut))"
attr title "outgoing packet lengths"
attr unit b
bin	-inf	0
bin	511	0
bin	512	5
bin	513	0
scalar SwitchNetwork.switch1.eth[0].macLayer.inboundEmitter flowOutgoingPacketLengths:sum 0
attr interpolationmode none
attr recordingmode sum
attr source "packetLength(demuxFlow(merge(packetPushedOut, packetPulledOut)))"
attr title "flow specific outgoing packet lengths, sum"
attr unit b
statistic SwitchNetwork.switch1.eth[0].macLayer.inboundEmitter flowOutgoingPacketLengths:histogram
field count 0
field mean -nan
field stddev nan
field min nan
field max nan
field sum 0
field sqrsum 0
attr interpolationmode none
attr recordingmode histogram
attr source "packetLength(demuxFlow(merge(packetPushedOut, packetPulledOut)))"
attr title "flow specific outgoing packet lengths"
attr unit b
bin	-inf	0
bin	0	0
bin	1	0
scalar SwitchNetwork.switch1.eth[0].macLayer.inboundEmitter incomingPackets:count 5
attr recordingmode count
attr source "merge(packetPushedIn, packetPulledIn)"
attr title "incoming packets, count"
attr unit pk
scalar SwitchNetwork.switch1.eth[0].macLayer.inboundEmitter incomingPacketLengths:sum 2560
attr interpolationmode none
attr recordingmode sum
attr source "packetLength(merge(packetPushedIn, packetPulledIn))"
attr title "incoming packet lengths, sum"
attr unit b
statistic SwitchNetwork.switch1.eth[0].macLayer.inboundEmitter incomingPacketLengths:histogram
field count 5
field mean 512
field stddev 0
field min 512
field max 512
field sum 2560
field sqrsum 1310720
attr interpolationmode none
attr recordingmode histogram
attr source "packetLength(merge(packetPushedIn, packetPulledIn))"
attr title "incoming packet lengths"
attr unit b
bin	-inf	0
bin	511	0
bin	512	5
bin	513	0
scalar SwitchNetwork.switch1.eth[0].macLayer.inboundEmitter flowIncomingPacketLengths:sum 0
attr interpolationmode none
attr recordingmode sum
attr source "packetLength(demuxFlow(merge(packetPushedIn, packetPulledIn)))"
attr title "flow specific incoming packet lengths, sum"
attr unit b
statistic SwitchNetwork.switch1.eth[0].macLayer.inboundEmitter flowIncomingPacketLengths:histogram
field count 0
field mean -nan
field stddev nan
field min nan
field max nan
field sum 0
field sqrsum 0
attr interpolationmode none
attr recordingmode histogram
attr source "packetLength(demuxFlow(merge(packetPushedIn, packetPulledIn)))"
attr title "flow specific incoming packet lengths"
attr unit b
bin	-inf	0
bin	0	0
bin	1	0
par SwitchNetwork.switch1.eth[0].macLayer typename "\"inet.linklayer.ethernet.modular.EthernetMacLayer\""
par SwitchNetwork.switch1.eth[0].macLayer bitrate 1e+09bps
attr unit bps
par SwitchNetwork.switch1.eth[0].phyLayer.upperLayerIn.channel typename "\"ned.IdealChannel\""
par SwitchNetwork.switch1.eth[0].phyLayer.transmitter.out.channel typename "\"ned.IdealChannel\""
par SwitchNetwork.switch1.eth[0].phyLayer.lowerLayerIn.channel typename "\"ned.IdealChannel\""
par SwitchNetwork.switch1.eth[0].phyLayer.phyHeaderChecker.out.channel typename "\"ned.IdealChannel\""
par SwitchNetwork.switch1.eth[0].phyLayer.phyHeaderInserter typename "\"inet.physicallayer.wired.ethernet.EthernetPhyHeaderInserter\""
par SwitchNetwork.switch1.eth[0].phyLayer.phyHeaderInserter displayStringTextFormat "\"processed %p pk (%l)\""
scalar SwitchNetwork.switch1.eth[0].phyLayer.phyHeaderInserter outgoingPackets:count 10
attr recordingmode count
attr source "merge(packetPushedOut, packetPulledOut)"
attr title "outgoing packets, count"
attr unit pk
scalar SwitchNetwork.switch1.eth[0].phyLayer.phyHeaderInserter outgoingPacketLengths:sum 5760
attr interpolationmode none
attr recordingmode sum
attr source "packetLength(merge(packetPushedOut, packetPulledOut))"
attr title "outgoing packet lengths, sum"
attr unit b
statistic SwitchNetwork.switch1.eth[0].phyLayer.phyHeaderInserter outgoingPacketLengths:histogram
field count 10
field mean 576
field stddev 0
field min 576
field max 576
field sum 5760
field sqrsum 3317760
attr interpolationmode none
attr recordingmode histogram
attr source "packetLength(merge(packetPushedOut, packetPulledOut))"
attr title "outgoing packet lengths"
attr unit b
bin	-inf	0
bin	575	0
bin	576	10
bin	577	0
scalar SwitchNetwork.switch1.eth[0].phyLayer.phyHeaderInserter flowOutgoingPacketLengths:sum 0
attr interpolationmode none
attr recordingmode sum
attr source "packetLength(demuxFlow(merge(packetPushedOut, packetPulledOut)))"
attr title "flow specific outgoing packet lengths, sum"
attr unit b
statistic SwitchNetwork.switch1.eth[0].phyLayer.phyHeaderInserter flowOutgoingPacketLengths:histogram
field count 0
field mean -nan
field stddev nan
field min nan
field max nan
field sum 0
field sqrsum 0
attr interpolationmode none
attr recordingmode histogram
attr source "packetLength(demuxFlow(merge(packetPushedOut, packetPulledOut)))"
attr title "flow specific outgoing packet lengths"
attr unit b
bin	-inf	0
bin	0	0
bin	1	0
scalar SwitchNetwork.switch1.eth[0].phyLayer.phyHeaderInserter incomingPackets:count 10
attr recordingmode count
attr source "merge(packetPushedIn, packetPulledIn)"
attr title "incoming packets, count"
attr unit pk
scalar SwitchNetwork.switch1.eth[0].phyLayer.phyHeaderInserter incomingPacketLengths:sum 5120
attr interpolationmode none
attr recordingmode sum
attr source "packetLength(merge(packetPushedIn, packetPulledIn))"
attr title "incoming packet lengths, sum"
attr unit b
[...]
attr interpolationmode none
attr recordingmode sum
attr source "packetLength(demuxFlow(merge(packetPushedIn, packetPulledIn)))"
attr title "flow specific incoming packet lengths, sum"
attr unit b
statistic SwitchNetwork.switch7.eth[3].phyLayer.phyHeaderInserter flowIncomingPacketLengths:histogram
field count 0
field mean -nan
field stddev nan
field min nan
field max nan
field sum 0
field sqrsum 0
attr interpolationmode none
attr recordingmode histogram
attr source "packetLength(demuxFlow(merge(packetPushedIn, packetPulledIn)))"
attr title "flow specific incoming packet lengths"
attr unit b
bin	-inf	0
bin	0	0
bin	1	0
par SwitchNetwork.switch7.eth[3].phyLayer.interFrameGapInserter typename "\"inet.protocolelement.common.InterpacketGapInserter\""
par SwitchNetwork.switch7.eth[3].phyLayer.interFrameGapInserter displayStringTextFormat "\"delayed %p pk (%l)\\nifg: %g\""
par SwitchNetwork.switch7.eth[3].phyLayer.interFrameGapInserter clockModule "\"\""
par SwitchNetwork.switch7.eth[3].phyLayer.interFrameGapInserter initialChannelBusy false
par SwitchNetwork.switch7.eth[3].phyLayer.interFrameGapInserter duration 96s/dropUnit(parent.bitrate)
attr unit s
par SwitchNetwork.switch7.eth[3].phyLayer.outboundEmitter typename "\"inet.protocolelement.common.PacketEmitter\""
par SwitchNetwork.switch7.eth[3].phyLayer.outboundEmitter displayStringTextFormat "\"processed %p pk (%l)\""
par SwitchNetwork.switch7.eth[3].phyLayer.outboundEmitter packetFilter "(omnetpp::cValueHolder)holder: \"*\""
par SwitchNetwork.switch7.eth[3].phyLayer.outboundEmitter direction "\"outbound\""
attr enum undefined,inbound,outbound
par SwitchNetwork.switch7.eth[3].phyLayer.outboundEmitter signalName "\"packetSentToLower\""
scalar SwitchNetwork.switch7.eth[3].phyLayer.outboundEmitter outgoingPackets:count 13
attr recordingmode count
attr source "merge(packetPushedOut, packetPulledOut)"
attr title "outgoing packets, count"
attr unit pk
scalar SwitchNetwork.switch7.eth[3].phyLayer.outboundEmitter outgoingPacketLengths:sum 7488
attr interpolationmode none
attr recordingmode sum
attr source "packetLength(merge(packetPushedOut, packetPulledOut))"
attr title "outgoing packet lengths, sum"
attr unit b
statistic SwitchNetwork.switch7.eth[3].phyLayer.outboundEmitter outgoingPacketLengths:histogram
field count 13
field mean 576
field stddev 0
field min 576
field max 576
field sum 7488
field sqrsum 4313088
attr interpolationmode none
attr recordingmode histogram
attr source "packetLength(merge(packetPushedOut, packetPulledOut))"
attr title "outgoing packet lengths"
attr unit b
bin	-inf	0
bin	575	0
bin	576	13
bin	577	0
scalar SwitchNetwork.switch7.eth[3].phyLayer.outboundEmitter flowOutgoingPacketLengths:sum 0
attr interpolationmode none
attr recordingmode sum
attr source "packetLength(demuxFlow(merge(packetPushedOut, packetPulledOut)))"
attr title "flow specific outgoing packet lengths, sum"
attr unit b
statistic SwitchNetwork.switch7.eth[3].phyLayer.outboundEmitter flowOutgoingPacketLengths:histogram
field count 0
field mean -nan
field stddev nan
field min nan
field max nan
field sum 0
field sqrsum 0
attr interpolationmode none
attr recordingmode histogram
attr source "packetLength(demuxFlow(merge(packetPushedOut, packetPulledOut)))"
attr title "flow specific outgoing packet lengths"
attr unit b
bin	-inf	0
bin	0	0
bin	1	0
scalar SwitchNetwork.switch7.eth[3].phyLayer.outboundEmitter incomingPackets:count 13
attr recordingmode count
attr source "merge(packetPushedIn, packetPulledIn)"
attr title "incoming packets, count"
attr unit pk
scalar SwitchNetwork.switch7.eth[3].phyLayer.outboundEmitter incomingPacketLengths:sum 7488
attr interpolationmode none
attr recordingmode sum
attr source "packetLength(merge(packetPushedIn, packetPulledIn))"
attr title "incoming packet lengths, sum"
attr unit b
statistic SwitchNetwork.switch7.eth[3].phyLayer.outboundEmitter incomingPacketLengths:histogram
field count 13
field mean 576
field stddev 0
field min 576
field max 576
field sum 7488
field sqrsum 4313088
attr interpolationmode none
attr recordingmode histogram
attr source "packetLength(merge(packetPushedIn, packetPulledIn))"
attr title "incoming packet lengths"
attr unit b
bin	-inf	0
bin	575	0
bin	576	13
bin	577	0
scalar SwitchNetwork.switch7.eth[3].phyLayer.outboundEmitter flowIncomingPacketLengths:sum 0
attr interpolationmode none
attr recordingmode sum
attr source "packetLength(demuxFlow(merge(packetPushedIn, packetPulledIn)))"
attr title "flow specific incoming packet lengths, sum"
attr unit b
statistic SwitchNetwork.switch7.eth[3].phyLayer.outboundEmitter flowIncomingPacketLengths:histogram
field count 0
field mean -nan
field stddev nan
field min nan
field max nan
field sum 0
field sqrsum 0
attr interpolationmode none
attr recordingmode histogram
attr source "packetLength(demuxFlow(merge(packetPushedIn, packetPulledIn)))"
attr title "flow specific incoming packet lengths"
attr unit b
bin	-inf	0
bin	0	0
bin	1	0
par SwitchNetwork.switch7.eth[3].phyLayer.transmitter typename "\"inet.protocolelement.transceiver.PacketTransmitter\""
par SwitchNetwork.switch7.eth[3].phyLayer.transmitter displayStringTextFormat "\"processed %p pk (%l)\""
par SwitchNetwork.switch7.eth[3].phyLayer.transmitter clockModule "\"\""
par SwitchNetwork.switch7.eth[3].phyLayer.transmitter datarate this.bitrate
attr unit bps
scalar SwitchNetwork.switch7.eth[3].phyLayer.transmitter propagationTime 5e-08
statistic SwitchNetwork.switch7.eth[3].phyLayer.transmitter utilization:histogram
field count 0
field mean -nan
field stddev nan
field min nan
field max nan
field sum 0
field sqrsum 0
attr interpolationmode linear
attr recordingmode histogram
attr source "100 * utilization(count(transmissionStarted) - count(transmissionEnded))"
attr title utilization
attr unit %
bin	-inf	0
bin	0	0
bin	1	0
statistic SwitchNetwork.switch7.eth[3].phyLayer.transmitter transmissionTime:histogram
field count 13
field mean 5.76e-07
field stddev 0
field min 5.76e-07
field max 5.76e-07
field sum 7.488e-06
field sqrsum 4.313088e-12
attr interpolationmode none
attr recordingmode histogram
attr source packetDuration(transmissionEnded)
attr title "transmission time"
attr unit s
bin	-inf	0
bin	0	13
bin	0.01	0
bin	0.02	0
bin	0.03	0
bin	0.04	0
bin	0.05	0
bin	0.06	0
bin	0.07	0
bin	0.08	0
bin	0.09	0
bin	0.1	0
bin	0.11	0
bin	0.12	0
bin	0.13	0
bin	0.14	0
bin	0.15	0
bin	0.16	0
bin	0.17	0
bin	0.18	0
bin	0.19	0
bin	0.2	0
bin	0.21	0
bin	0.22	0
bin	0.23	0
bin	0.24	0
bin	0.25	0
bin	0.26	0
bin	0.27	0
bin	0.28	0
bin	0.29	0
bin	0.3	0
bin	0.31	0
bin	0.32	0
bin	0.33	0
bin	0.34	0
bin	0.35	0
bin	0.36	0
bin	0.37	0
bin	0.38	0
bin	0.39	0
bin	0.4	0
bin	0.41	0
bin	0.42	0
bin	0.43	0
bin	0.44	0
bin	0.45	0
bin	0.46	0
bin	0.47	0
bin	0.48	0
bin	0.49	0
bin	0.5	0
bin	0.51	0
statistic SwitchNetwork.switch7.eth[3].phyLayer.transmitter flowTransmissionTime:histogram
field count 0
field mean -nan
field stddev nan
field min nan
field max nan
field sum 0
field sqrsum 0
attr interpolationmode none
attr recordingmode histogram
attr source packetDuration(demuxFlow(transmissionEnded))
attr title "flow transmission time"
attr unit s
bin	-inf	0
bin	0	0
bin	1	0
par SwitchNetwork.switch7.eth[3].phyLayer.phyHeaderChecker typename "\"inet.physicallayer.wired.ethernet.EthernetPhyHeaderChecker\""
par SwitchNetwork.switch7.eth[3].phyLayer.phyHeaderChecker displayStringTextFormat "\"dropped %d/%p pk (%k/%l)\""
par SwitchNetwork.switch7.eth[3].phyLayer.phyHeaderChecker backpressure false
scalar SwitchNetwork.switch7.eth[3].phyLayer.phyHeaderChecker outgoingPackets:count 5
attr recordingmode count
attr source "merge(packetPushedOut, packetPulledOut)"
attr title "outgoing packets, count"
attr unit pk
scalar SwitchNetwork.switch7.eth[3].phyLayer.phyHeaderChecker outgoingPacketLengths:sum 2560
attr interpolationmode none
attr recordingmode sum
attr source "packetLength(merge(packetPushedOut, packetPulledOut))"
attr title "outgoing packet lengths, sum"
attr unit b
statistic SwitchNetwork.switch7.eth[3].phyLayer.phyHeaderChecker outgoingPacketLengths:histogram
field count 5
field mean 512
field stddev 0
field min 512
field max 512
field sum 2560
field sqrsum 1310720
attr interpolationmode none
attr recordingmode histogram
attr source "packetLength(merge(packetPushedOut, packetPulledOut))"
attr title "outgoing packet lengths"
attr unit b
bin	-inf	0
bin	511	0
bin	512	5
bin	513	0
scalar SwitchNetwork.switch7.eth[3].phyLayer.phyHeaderChecker flowOutgoingPacketLengths:sum 0
attr interpolationmode none
attr recordingmode sum
attr source "packetLength(demuxFlow(merge(packetPushedOut, packetPulledOut)))"
attr title "flow specific outgoing packet lengths, sum"
attr unit b
statistic SwitchNetwork.switch7.eth[3].phyLayer.phyHeaderChecker flowOutgoingPacketLengths:histogram
field count 0
field mean -nan
field stddev nan
field min nan
field max nan
field sum 0
field sqrsum 0
attr interpolationmode none
attr recordingmode histogram
attr source "packetLength(demuxFlow(merge(packetPushedOut, packetPulledOut)))"
attr title "flow specific outgoing packet lengths"
attr unit b
bin	-inf	0
bin	0	0
bin	1	0
scalar SwitchNetwork.switch7.eth[3].phyLayer.phyHeaderChecker incomingPackets:count 5
attr recordingmode count
attr source "merge(packetPushedIn, packetPulledIn)"
attr title "incoming packets, count"
attr unit pk
scalar SwitchNetwork.switch7.eth[3].phyLayer.phyHeaderChecker incomingPacketLengths:sum 2880
attr interpolationmode none
attr recordingmode sum
attr source "packetLength(merge(packetPushedIn, packetPulledIn))"
attr title "incoming packet lengths, sum"
attr unit b
statistic SwitchNetwork.switch7.eth[3].phyLayer.phyHeaderChecker incomingPacketLengths:histogram
field count 5
field mean 576
field stddev 0
field min 576
field max 576
field sum 2880
field sqrsum 1658880
attr interpolationmode none
attr recordingmode histogram
attr source "packetLength(merge(packetPushedIn, packetPulledIn))"
attr title "incoming packet lengths"
attr unit b
bin	-inf	0
bin	575	0
bin	576	5
bin	577	0
scalar SwitchNetwork.switch7.eth[3].phyLayer.phyHeaderChecker flowIncomingPacketLengths:sum 0
attr interpolationmode none
attr recordingmode sum
attr source "packetLength(demuxFlow(merge(packetPushedIn, packetPulledIn)))"
attr title "flow specific incoming packet lengths, sum"
attr unit b
statistic SwitchNetwork.switch7.eth[3].phyLayer.phyHeaderChecker flowIncomingPacketLengths:histogram
field count 0
field mean -nan
field stddev nan
field min nan
field max nan
field sum 0
field sqrsum 0
attr interpolationmode none
attr recordingmode histogram
attr source "packetLength(demuxFlow(merge(packetPushedIn, packetPulledIn)))"
attr title "flow specific incoming packet lengths"
attr unit b
bin	-inf	0
bin	0	0
bin	1	0
scalar SwitchNetwork.switch7.eth[3].phyLayer.phyHeaderChecker droppedPackets:count 0
attr recordingmode count
attr source packetDropped
attr title "dropped packets, count"
attr unit pk
scalar SwitchNetwork.switch7.eth[3].phyLayer.phyHeaderChecker droppedPacketLengths:sum 0
attr interpolationmode none
attr recordingmode sum
attr source packetLength(packetDropped)
attr title "dropped packet lengths, sum"
attr unit b
statistic SwitchNetwork.switch7.eth[3].phyLayer.phyHeaderChecker droppedPacketLengths:histogram
field count 0
field mean -nan
field stddev nan
field min nan
field max nan
field sum 0
field sqrsum 0
attr interpolationmode none
attr recordingmode histogram
attr source packetLength(packetDropped)
attr title "dropped packet lengths"
attr unit b
bin	-inf	0
bin	0	0
bin	1	0
scalar SwitchNetwork.switch7.eth[3].phyLayer.phyHeaderChecker flowDroppedPacketLengths:sum 0
attr interpolationmode none
attr recordingmode sum
attr source packetLength(demuxFlow(packetDropped))
attr title "flow specific dropped packet lengths, sum"
attr unit b
statistic SwitchNetwork.switch7.eth[3].phyLayer.phyHeaderChecker flowDroppedPacketLengths:histogram
field count 0
field mean -nan
field stddev nan
field min nan
field max nan
field sum 0
field sqrsum 0
attr interpolationmode none
attr recordingmode histogram
attr source packetLength(demuxFlow(packetDropped))
attr title "flow specific dropped packet lengths"
attr unit b
bin	-inf	0
bin	0	0
bin	1	0
par SwitchNetwork.switch7.eth[3].phyLayer.inboundEmitter typename "\"inet.protocolelement.common.PacketEmitter\""
par SwitchNetwork.switch7.eth[3].phyLayer.inboundEmitter displayStringTextFormat "\"processed %p pk (%l)\""
par SwitchNetwork.switch7.eth[3].phyLayer.inboundEmitter packetFilter "(omnetpp::cValueHolder)holder: \"*\""
par SwitchNetwork.switch7.eth[3].phyLayer.inboundEmitter direction "\"inbound\""
attr enum undefined,inbound,outbound
par SwitchNetwork.switch7.eth[3].phyLayer.inboundEmitter signalName "\"packetReceivedFromLower\""
scalar SwitchNetwork.switch7.eth[3].phyLayer.inboundEmitter outgoingPackets:count 5
attr recordingmode count
attr source "merge(packetPushedOut, packetPulledOut)"
attr title "outgoing packets, count"
attr unit pk
scalar SwitchNetwork.switch7.eth[3].phyLayer.inboundEmitter outgoingPacketLengths:sum 2880
attr interpolationmode none
attr recordingmode sum
attr source "packetLength(merge(packetPushedOut, packetPulledOut))"
attr title "outgoing packet lengths, sum"
attr unit b
statistic SwitchNetwork.switch7.eth[3].phyLayer.inboundEmitter outgoingPacketLengths:histogram
field count 5
field mean 576
field stddev 0
field min 576
field max 576
field sum 2880
field sqrsum 1658880
attr interpolationmode none
attr recordingmode histogram
attr source "packetLength(merge(packetPushedOut, packetPulledOut))"
attr title "outgoing packet lengths"
attr unit b
bin	-inf	0
bin	575	0
bin	576	5
bin	577	0
scalar SwitchNetwork.switch7.eth[3].phyLayer.inboundEmitter flowOutgoingPacketLengths:sum 0
attr interpolationmode none
attr recordingmode sum
attr source "packetLength(demuxFlow(merge(packetPushedOut, packetPulledOut)))"
attr title "flow specific outgoing packet lengths, sum"
attr unit b
statistic SwitchNetwork.switch7.eth[3].phyLayer.inboundEmitter flowOutgoingPacketLengths:histogram
field count 0
field mean -nan
field stddev nan
field min nan
field max nan
field sum 0
field sqrsum 0
attr interpolationmode none
attr recordingmode histogram
attr source "packetLength(demuxFlow(merge(packetPushedOut, packetPulledOut)))"
attr title "flow specific outgoing packet lengths"
attr unit b
bin	-inf	0
bin	0	0
bin	1	0
scalar SwitchNetwork.switch7.eth[3].phyLayer.inboundEmitter incomingPackets:count 5
attr recordingmode count
attr source "merge(packetPushedIn, packetPulledIn)"
attr title "incoming packets, count"
attr unit pk
scalar SwitchNetwork.switch7.eth[3].phyLayer.inboundEmitter incomingPacketLengths:sum 2880
attr interpolationmode none
attr recordingmode sum
attr source "packetLength(merge(packetPushedIn, packetPulledIn))"
attr title "incoming packet lengths, sum"
attr unit b
statistic SwitchNetwork.switch7.eth[3].phyLayer.inboundEmitter incomingPacketLengths:histogram
field count 5
field mean 576
field stddev 0
field min 576
field max 576
field sum 2880
field sqrsum 1658880
attr interpolationmode none
attr recordingmode histogram
attr source "packetLength(merge(packetPushedIn, packetPulledIn))"
attr title "incoming packet lengths"
attr unit b
bin	-inf	0
bin	575	0
bin	576	5
bin	577	0
scalar SwitchNetwork.switch7.eth[3].phyLayer.inboundEmitter flowIncomingPacketLengths:sum 0
attr interpolationmode none
attr recordingmode sum
attr source "packetLength(demuxFlow(merge(packetPushedIn, packetPulledIn)))"
attr title "flow specific incoming packet lengths, sum"
attr unit b
statistic SwitchNetwork.switch7.eth[3].phyLayer.inboundEmitter flowIncomingPacketLengths:histogram
field count 0
field mean -nan
field stddev nan
field min nan
field max nan
field sum 0
field sqrsum 0
attr interpolationmode none
attr recordingmode histogram
attr source "packetLength(demuxFlow(merge(packetPushedIn, packetPulledIn)))"
attr title "flow specific incoming packet lengths"
attr unit b
bin	-inf	0
bin	0	0
bin	1	0
par SwitchNetwork.switch7.eth[3].phyLayer.receiver typename "\"inet.protocolelement.transceiver.PacketReceiver\""
par SwitchNetwork.switch7.eth[3].phyLayer.receiver displayStringTextFormat "\"processed %p pk (%l)\""
par SwitchNetwork.switch7.eth[3].phyLayer.receiver datarate 1e+09bps
attr unit bps
statistic SwitchNetwork.switch7.eth[3].phyLayer.receiver receptionTime:histogram
field count 5
field mean 5.76e-07
field stddev 0
field min 5.76e-07
field max 5.76e-07
field sum 2.88e-06
field sqrsum 1.65888e-12
attr interpolationmode none
attr recordingmode histogram
attr source packetDuration(receptionEnded)
attr title "reception time"
attr unit s
bin	-inf	0
bin	0	5
bin	0.01	0
bin	0.02	0
bin	0.03	0
bin	0.04	0
bin	0.05	0
bin	0.06	0
bin	0.07	0
bin	0.08	0
bin	0.09	0
bin	0.1	0
bin	0.11	0
bin	0.12	0
bin	0.13	0
bin	0.14	0
bin	0.15	0
bin	0.16	0
bin	0.17	0
bin	0.18	0
bin	0.19	0
bin	0.2	0
bin	0.21	0
bin	0.22	0
bin	0.23	0
bin	0.24	0
bin	0.25	0
bin	0.26	0
bin	0.27	0
bin	0.28	0
bin	0.29	0
bin	0.3	0
bin	0.31	0
bin	0.32	0
bin	0.33	0
bin	0.34	0
bin	0.35	0
bin	0.36	0
bin	0.37	0
bin	0.38	0
bin	0.39	0
bin	0.4	0
bin	0.41	0
bin	0.42	0
bin	0.43	0
bin	0.44	0
bin	0.45	0
bin	0.46	0
bin	0.47	0
bin	0.48	0
bin	0.49	0
bin	0.5	0
bin	0.51	0
statistic SwitchNetwork.switch7.eth[3].phyLayer.receiver flowReceptionTime:histogram
field count 0
field mean -nan
field stddev nan
field min nan
field max nan
field sum 0
field sqrsum 0
attr interpolationmode none
attr recordingmode histogram
attr source packetDuration(demuxFlow(receptionEnded))
attr title "flow reception time"
attr unit s
bin	-inf	0
bin	0	0
bin	1	0
par SwitchNetwork.switch7.eth[3].phyLayer typename "\"inet.physicallayer.wired.ethernet.EthernetPhyLayer\""
par SwitchNetwork.switch7.eth[3].phyLayer bitrate this.bitrate
attr unit bps
par SwitchNetwork.switch7.eth[3] typename "\"inet.linklayer.ethernet.LayeredEthernetInterface\""
par SwitchNetwork.switch7.eth[3] displayStringTextFormat "\"%a (%i)\\n%m\""
par SwitchNetwork.switch7.eth[3] recordPcap false
par SwitchNetwork.switch7.eth[3] numPcapRecorders 0
par SwitchNetwork.switch7.eth[3] protocol "\"ethernetmac\""
par SwitchNetwork.switch7.eth[3] broadcast true
par SwitchNetwork.switch7.eth[3] multicast true
par SwitchNetwork.switch7.eth[3] address "\"AAAAAA000007\""
attr mutable ""
par SwitchNetwork.switch7.eth[3] bitrate 1e+09bps
attr unit bps
par SwitchNetwork.switch7.eth[3] mtu 1500B
attr unit B
par SwitchNetwork.switch7.eth[3] interfaceTableModule "\"SwitchNetwork.switch7.interfaceTable\""
scalar SwitchNetwork.switch7.eth[3] packetDropInterfaceDown:count 0
attr interpolationmode none
attr recordingmode count
attr source packetDropReasonIsInterfaceDown(packetDropped)
attr title "packet drops: interface down, count"
scalar SwitchNetwork.switch7.eth[3] packetDropInterfaceDown:sum(packetBytes) 0
attr interpolationmode none
attr recordingmode sum(packetBytes)
attr source packetDropReasonIsInterfaceDown(packetDropped)
attr title "packet drops: interface down, sum(packetBytes)"
scalar SwitchNetwork.switch7.eth[3] packetDropNoCarrier:count 0
attr interpolationmode none
attr recordingmode count
attr source packetDropReasonIsNoCarrier(packetDropped)
attr title "packet drops: no carrier, count"
scalar SwitchNetwork.switch7.eth[3] packetDropNoCarrier:sum(packetBytes) 0
attr interpolationmode none
attr recordingmode sum(packetBytes)
attr source packetDropReasonIsNoCarrier(packetDropped)
attr title "packet drops: no carrier, sum(packetBytes)"
par SwitchNetwork.switch7 typename "\"inet.node.ethernet.EthernetSwitch\""
par SwitchNetwork.switch7 recordPcap false
par SwitchNetwork.switch7 numPcapRecorders 0
par SwitchNetwork.switch7 numApps 0
par SwitchNetwork.switch7 hasStatus false
par SwitchNetwork.switch7 hasStp true
par SwitchNetwork.switch7 hasGptp false
par SwitchNetwork.switch7 hasCutthroughSwitching false
par SwitchNetwork.switch7 fcsMode "\"declared\""
attr enum declared,computed
par SwitchNetwork.switch7 spanningTreeProtocol "\"Rstp\""
par SwitchNetwork.switch7 numEthInterfaces 0
par SwitchNetwork typename "\"inet.examples.ieee8021d.SwitchNetwork\""

