version 3
run RSTP-LargeNet-0-20240305-09:22:31-8339
attr configname RSTP-LargeNet
attr datetime 20240305-09:22:31
attr datetimef 20240305-092231
attr experiment RSTP-LargeNet
attr inifile omnetpp.ini
attr iterationvars ""
attr iterationvarsd ""
attr iterationvarsf ""
attr measurement ""
attr network LargeNet
attr processid 8339
attr repetition 0
attr replication #0
attr resultdir results
attr runnumber 0
attr seedset 0
config image-path ../../images
config extends "LargeNet, TopologyChange, RSTP"
config network LargeNet
config **.host*.encap.typename ""
config **.host*.llc.typename Ieee8022Llc
config **.host*.eth.typename LayeredEthernetInterface
config **.host*.ethernet.typename EthernetLayer
config **.host*.eth.bitrate 1Gbps
config **.switch8.**.address "\"AAAAAA000008\""
config **.switch9.**.address "\"AAAAAA000009\""
config **.switch10.**.address "\"AAAAAA00000A\""
config **.switch11.**.address "\"AAAAAA00000B\""
config **.host2.cli.destAddress "\"LargeNet.host1\""
config **.host3.cli.destAddress "\"LargeNet.host1\""
config **.host4.cli.destAddress "\"LargeNet.host6\""
config **.host5.cli.destAddress "\"LargeNet.host3\""
config **.host6.cli.destAddress "\"LargeNet.host3\""
config **.host*.cli.startTime 10ms
config **.hasStatus true
config **.script "xmldoc(\"Events.xml\")"
config **.hasStp true
config **.spanningTreeProtocol "\"Rstp\""
config sim-time-limit 200s
config **.vector-recording false
config **.visualize true
config **.agingTime 1s
config network SwitchNetwork
config **.switch1.**.address "\"AAAAAA000001\""
config **.switch2.**.address "\"AAAAAA000002\""
config **.switch3.**.address "\"AAAAAA000003\""
config **.switch4.**.address "\"AAAAAA000004\""
config **.switch5.**.address "\"AAAAAA000005\""
config **.switch6.**.address "\"AAAAAA000006\""
config **.switch7.**.address "\"AAAAAA000007\""
config **.switch*.eth[*].typename LayeredEthernetInterface
config **.switch*.ethernet.typename EthernetLayer
config **.switch*.eth[*].bitrate 1Gbps
config **.macLayer.server.serveSchedulingPriority -1

par LargeNet.switch1.ethg$o[0].channel typename "\"inet.node.ethernet.Eth1G\""
par LargeNet.switch1.ethg$o[0].channel disabled false
attr mutable ""
par LargeNet.switch1.ethg$o[0].channel delay 5e-08s
attr mutable ""
attr unit s
par LargeNet.switch1.ethg$o[0].channel datarate 1e+09bps
attr mutable ""
attr unit bps
par LargeNet.switch1.ethg$o[0].channel ber 0
attr mutable ""
par LargeNet.switch1.ethg$o[0].channel per 0
attr mutable ""
par LargeNet.switch1.ethg$o[0].channel length 10m
attr unit m
par LargeNet.switch4.ethg$o[0].channel typename "\"inet.node.ethernet.Eth1G\""
par LargeNet.switch4.ethg$o[0].channel disabled false
attr mutable ""
par LargeNet.switch4.ethg$o[0].channel delay 5e-08s
attr mutable ""
attr unit s
par LargeNet.switch4.ethg$o[0].channel datarate 1e+09bps
attr mutable ""
attr unit bps
par LargeNet.switch4.ethg$o[0].channel ber 0
attr mutable ""
par LargeNet.switch4.ethg$o[0].channel per 0
attr mutable ""
par LargeNet.switch4.ethg$o[0].channel length 10m
attr unit m
par LargeNet.switch1.ethg$o[1].channel typename "\"inet.node.ethernet.Eth1G\""
par LargeNet.switch1.ethg$o[1].channel disabled false
attr mutable ""
par LargeNet.switch1.ethg$o[1].channel delay 5e-08s
attr mutable ""
attr unit s
par LargeNet.switch1.ethg$o[1].channel datarate 1e+09bps
attr mutable ""
attr unit bps
par LargeNet.switch1.ethg$o[1].channel ber 0
attr mutable ""
par LargeNet.switch1.ethg$o[1].channel per 0
attr mutable ""
par LargeNet.switch1.ethg$o[1].channel length 10m
attr unit m
par LargeNet.switch3.ethg$o[0].channel typename "\"inet.node.ethernet.Eth1G\""
par LargeNet.switch3.ethg$o[0].channel disabled false
attr mutable ""
par LargeNet.switch3.ethg$o[0].channel delay 5e-08s
attr mutable ""
attr unit s
par LargeNet.switch3.ethg$o[0].channel datarate 1e+09bps
attr mutable ""
attr unit bps
par LargeNet.switch3.ethg$o[0].channel ber 0
attr mutable ""
par LargeNet.switch3.ethg$o[0].channel per 0
attr mutable ""
par LargeNet.switch3.ethg$o[0].channel length 10m
attr unit m
par LargeNet.switch2.ethg$o[0].channel typename "\"inet.node.ethernet.Eth1G\""
par LargeNet.switch2.ethg$o[0].channel disabled false
attr mutable ""
par LargeNet.switch2.ethg$o[0].channel delay 5e-08s
attr mutable ""
attr unit s
par LargeNet.switch2.ethg$o[0].channel datarate 1e+09bps
attr mutable ""
attr unit bps
par LargeNet.switch2.ethg$o[0].channel ber 0
attr mutable ""
par LargeNet.switch2.ethg$o[0].channel per 0
attr mutable ""
par LargeNet.switch2.ethg$o[0].channel length 10m
attr unit m
par LargeNet.switch4.ethg$o[1].channel typename "\"inet.node.ethernet.Eth1G\""
par LargeNet.switch4.ethg$o[1].channel disabled false
attr mutable ""
par LargeNet.switch4.ethg$o[1].channel delay 5e-08s
attr mutable ""
attr unit s
par LargeNet.switch4.ethg$o[1].channel datarate 1e+09bps
attr mutable ""
attr unit bps
par LargeNet.switch4.ethg$o[1].channel ber 0
attr mutable ""
par LargeNet.switch4.ethg$o[1].channel per 0
attr mutable ""
par LargeNet.switch4.ethg$o[1].channel length 10m
attr unit m
par LargeNet.switch2.ethg$o[1].channel typename "\"inet.node.ethernet.Eth1G\""
par LargeNet.switch2.ethg$o[1].channel disabled false
attr mutable ""
par LargeNet.switch2.ethg$o[1].channel delay 5e-08s
attr mutable ""
attr unit s
par LargeNet.switch2.ethg$o[1].channel datarate 1e+09bps
attr mutable ""
attr unit bps
par LargeNet.switch2.ethg$o[1].channel ber 0
attr mutable ""
par LargeNet.switch2.ethg$o[1].channel per 0
attr mutable ""
par LargeNet.switch2.ethg$o[1].channel length 10m
attr unit m
par LargeNet.switch6.ethg$o[0].channel typename "\"inet.node.ethernet.Eth1G\""
par LargeNet.switch6.ethg$o[0].channel disabled false
attr mutable ""
par LargeNet.switch6.ethg$o[0].channel delay 5e-08s
attr mutable ""
attr unit s
par LargeNet.switch6.ethg$o[0].channel datarate 1e+09bps
attr mutable ""
attr unit bps
par LargeNet.switch6.ethg$o[0].channel ber 0
attr mutable ""
par LargeNet.switch6.ethg$o[0].channel per 0
attr mutable ""
par LargeNet.switch6.ethg$o[0].channel length 10m
attr unit m
par LargeNet.switch2.ethg$o[2].channel typename "\"inet.node.ethernet.Eth1G\""
par LargeNet.switch2.ethg$o[2].channel disabled false
attr mutable ""
par LargeNet.switch2.ethg$o[2].channel delay 5e-08s
attr mutable ""
attr unit s
par LargeNet.switch2.ethg$o[2].channel datarate 1e+09bps
attr mutable ""
attr unit bps
par LargeNet.switch2.ethg$o[2].channel ber 0
attr mutable ""
par LargeNet.switch2.ethg$o[2].channel per 0
attr mutable ""
par LargeNet.switch2.ethg$o[2].channel length 10m
attr unit m
par LargeNet.switch7.ethg$o[0].channel typename "\"inet.node.ethernet.Eth1G\""
par LargeNet.switch7.ethg$o[0].channel disabled false
attr mutable ""
par LargeNet.switch7.ethg$o[0].channel delay 5e-08s
attr mutable ""
attr unit s
par LargeNet.switch7.ethg$o[0].channel datarate 1e+09bps
attr mutable ""
attr unit bps
par LargeNet.switch7.ethg$o[0].channel ber 0
attr mutable ""
par LargeNet.switch7.ethg$o[0].channel per 0
attr mutable ""
par LargeNet.switch7.ethg$o[0].channel length 10m
attr unit m
par LargeNet.switch3.ethg$o[1].channel typename "\"inet.node.ethernet.Eth1G\""
par LargeNet.switch3.ethg$o[1].channel disabled false
attr mutable ""
par LargeNet.switch3.ethg$o[1].channel delay 5e-08s
attr mutable ""
attr unit s
par LargeNet.switch3.ethg$o[1].channel datarate 1e+09bps
attr mutable ""
attr unit bps
par LargeNet.switch3.ethg$o[1].channel ber 0
attr mutable ""
par LargeNet.switch3.ethg$o[1].channel per 0
attr mutable ""
par LargeNet.switch3.ethg$o[1].channel length 10m
attr unit m
par LargeNet.switch7.ethg$o[1].channel typename "\"inet.node.ethernet.Eth1G\""
par LargeNet.switch7.ethg$o[1].channel disabled false
attr mutable ""
par LargeNet.switch7.ethg$o[1].channel delay 5e-08s
attr mutable ""
attr unit s
par LargeNet.switch7.ethg$o[1].channel datarate 1e+09bps
attr mutable ""
attr unit bps
par LargeNet.switch7.ethg$o[1].channel ber 0
attr mutable ""
par LargeNet.switch7.ethg$o[1].channel per 0
attr mutable ""
par LargeNet.switch7.ethg$o[1].channel length 10m
attr unit m
par LargeNet.switch4.ethg$o[2].channel typename "\"inet.node.ethernet.Eth1G\""
par LargeNet.switch4.ethg$o[2].channel disabled false
attr mutable ""
par LargeNet.switch4.ethg$o[2].channel delay 5e-08s
attr mutable ""
attr unit s
par LargeNet.switch4.ethg$o[2].channel datarate 1e+09bps
attr mutable ""
attr unit bps
par LargeNet.switch4.ethg$o[2].channel ber 0
attr mutable ""
par LargeNet.switch4.ethg$o[2].channel per 0
attr mutable ""
par LargeNet.switch4.ethg$o[2].channel length 10m
attr unit m
par LargeNet.switch6.ethg$o[1].channel typename "\"inet.node.ethernet.Eth1G\""
par LargeNet.switch6.ethg$o[1].channel disabled false
attr mutable ""
par LargeNet.switch6.ethg$o[1].channel delay 5e-08s
attr mutable ""
attr unit s
par LargeNet.switch6.ethg$o[1].channel datarate 1e+09bps
attr mutable ""
attr unit bps
par LargeNet.switch6.ethg$o[1].channel ber 0
attr mutable ""
par LargeNet.switch6.ethg$o[1].channel per 0
attr mutable ""
par LargeNet.switch6.ethg$o[1].channel length 10m
attr unit m
par LargeNet.switch4.ethg$o[3].channel typename "\"inet.node.ethernet.Eth1G\""
par LargeNet.switch4.ethg$o[3].channel disabled false
attr mutable ""
par LargeNet.switch4.ethg$o[3].channel delay 5e-08s
attr mutable ""
attr unit s
par LargeNet.switch4.ethg$o[3].channel datarate 1e+09bps
attr mutable ""
attr unit bps
par LargeNet.switch4.ethg$o[3].channel ber 0
attr mutable ""
par LargeNet.switch4.ethg$o[3].channel per 0
attr mutable ""
par LargeNet.switch4.ethg$o[3].channel length 10m
attr unit m
par LargeNet.switch7.ethg$o[2].channel typename "\"inet.node.ethernet.Eth1G\""
par LargeNet.switch7.ethg$o[2].channel disabled false
attr mutable ""
par LargeNet.switch7.ethg$o[2].channel delay 5e-08s
attr mutable ""
attr unit s
par LargeNet.switch7.ethg$o[2].channel datarate 1e+09bps
attr mutable ""
attr unit bps
par LargeNet.switch7.ethg$o[2].channel ber 0
attr mutable ""
par LargeNet.switch7.ethg$o[2].channel per 0
attr mutable ""
par LargeNet.switch7.ethg$o[2].channel length 10m
attr unit m
par LargeNet.switch5.ethg$o[0].channel typename "\"inet.node.ethernet.Eth1G\""
par LargeNet.switch5.ethg$o[0].channel disabled false
attr mutable ""
par LargeNet.switch5.ethg$o[0].channel delay 5e-08s
attr mutable ""
attr unit s
par LargeNet.switch5.ethg$o[0].channel datarate 1e+09bps
attr mutable ""
attr unit bps
par LargeNet.switch5.ethg$o[0].channel ber 0
attr mutable ""
par LargeNet.switch5.ethg$o[0].channel per 0
attr mutable ""
par LargeNet.switch5.ethg$o[0].channel length 10m
attr unit m
par LargeNet.switch7.ethg$o[3].channel typename "\"inet.node.ethernet.Eth1G\""
par LargeNet.switch7.ethg$o[3].channel disabled false
attr mutable ""
par LargeNet.switch7.ethg$o[3].channel delay 5e-08s
attr mutable ""
attr unit s
par LargeNet.switch7.ethg$o[3].channel datarate 1e+09bps
attr mutable ""
attr unit bps
par LargeNet.switch7.ethg$o[3].channel ber 0
attr mutable ""
par LargeNet.switch7.ethg$o[3].channel per 0
attr mutable ""
par LargeNet.switch7.ethg$o[3].channel length 10m
attr unit m
par LargeNet.switch11.ethg$o[0].channel typename "\"inet.node.ethernet.Eth1G\""
par LargeNet.switch11.ethg$o[0].channel disabled false
attr mutable ""
par LargeNet.switch11.ethg$o[0].channel delay 5e-08s
attr mutable ""
attr unit s
par LargeNet.switch11.ethg$o[0].channel datarate 1e+09bps
attr mutable ""
attr unit bps
par LargeNet.switch11.ethg$o[0].channel ber 0
attr mutable ""
par LargeNet.switch11.ethg$o[0].channel per 0
attr mutable ""
par LargeNet.switch11.ethg$o[0].channel length 10m
attr unit m
par LargeNet.switch9.ethg$o[0].channel typename "\"inet.node.ethernet.Eth1G\""
par LargeNet.switch9.ethg$o[0].channel disabled false
attr mutable ""
par LargeNet.switch9.ethg$o[0].channel delay 5e-08s
attr mutable ""
attr unit s
par LargeNet.switch9.ethg$o[0].channel datarate 1e+09bps
attr mutable ""
attr unit bps
par LargeNet.switch9.ethg$o[0].channel ber 0
attr mutable ""
par LargeNet.switch9.ethg$o[0].channel per 0
attr mutable ""
par LargeNet.switch9.ethg$o[0].channel length 10m
attr unit m
par LargeNet.switch11.ethg$o[1].channel typename "\"inet.node.ethernet.Eth1G\""
par LargeNet.switch11.ethg$o[1].channel disabled false
attr mutable ""
par LargeNet.switch11.ethg$o[1].channel delay 5e-08s
attr mutable ""
attr unit s
par LargeNet.switch11.ethg$o[1].channel datarate 1e+09bps
attr mutable ""
attr unit bps
par LargeNet.switch11.ethg$o[1].channel ber 0
attr mutable ""
par LargeNet.switch11.ethg$o[1].channel per 0
attr mutable ""
par LargeNet.switch11.ethg$o[1].channel length 10m
attr unit m
par LargeNet.switch10.ethg$o[0].channel typename "\"inet.node.ethernet.Eth1G\""
par LargeNet.switch10.ethg$o[0].channel disabled false
attr mutable ""
par LargeNet.switch10.ethg$o[0].channel delay 5e-08s
attr mutable ""
attr unit s
par LargeNet.switch10.ethg$o[0].channel datarate 1e+09bps
attr mutable ""
attr unit bps
par LargeNet.switch10.ethg$o[0].channel ber 0
attr mutable ""
par LargeNet.switch10.ethg$o[0].channel per 0
attr mutable ""
par LargeNet.switch10.ethg$o[0].channel length 10m
attr unit m
par LargeNet.switch11.ethg$o[2].channel typename "\"inet.node.ethernet.Eth1G\""
par LargeNet.switch11.ethg$o[2].channel disabled false
attr mutable ""
par LargeNet.switch11.ethg$o[2].channel delay 5e-08s
attr mutable ""
attr unit s
par LargeNet.switch11.ethg$o[2].channel datarate 1e+09bps
attr mutable ""
attr unit bps
par LargeNet.switch11.ethg$o[2].channel ber 0
attr mutable ""
par LargeNet.switch11.ethg$o[2].channel per 0
attr mutable ""
par LargeNet.switch11.ethg$o[2].channel length 10m
attr unit m
par LargeNet.switch5.ethg$o[1].channel typename "\"inet.node.ethernet.Eth1G\""
par LargeNet.switch5.ethg$o[1].channel disabled false
attr mutable ""
par LargeNet.switch5.ethg$o[1].channel delay 5e-08s
attr mutable ""
attr unit s
par LargeNet.switch5.ethg$o[1].channel datarate 1e+09bps
attr mutable ""
attr unit bps
par LargeNet.switch5.ethg$o[1].channel ber 0
attr mutable ""
par LargeNet.switch5.ethg$o[1].channel per 0
attr mutable ""
par LargeNet.switch5.ethg$o[1].channel length 10m
attr unit m
par LargeNet.switch9.ethg$o[1].channel typename "\"inet.node.ethernet.Eth1G\""
par LargeNet.switch9.ethg$o[1].channel disabled false
attr mutable ""
par LargeNet.switch9.ethg$o[1].channel delay 5e-08s
attr mutable ""
attr unit s
par LargeNet.switch9.ethg$o[1].channel datarate 1e+09bps
attr mutable ""
attr unit bps
par LargeNet.switch9.ethg$o[1].channel ber 0
attr mutable ""
par LargeNet.switch9.ethg$o[1].channel per 0
attr mutable ""
par LargeNet.switch9.ethg$o[1].channel length 10m
attr unit m
par LargeNet.switch10.ethg$o[1].channel typename "\"inet.node.ethernet.Eth1G\""
par LargeNet.switch10.ethg$o[1].channel disabled false
attr mutable ""
par LargeNet.switch10.ethg$o[1].channel delay 5e-08s
attr mutable ""
attr unit s
par LargeNet.switch10.ethg$o[1].channel datarate 1e+09bps
attr mutable ""
attr unit bps
par LargeNet.switch10.ethg$o[1].channel ber 0
attr mutable ""
par LargeNet.switch10.ethg$o[1].channel per 0
attr mutable ""
par LargeNet.switch10.ethg$o[1].channel length 10m
attr unit m
par LargeNet.switch8.ethg$o[0].channel typename "\"inet.node.ethernet.Eth1G\""
par LargeNet.switch8.ethg$o[0].channel disabled false
attr mutable ""
par LargeNet.switch8.ethg$o[0].channel delay 5e-08s
attr mutable ""
attr unit s
par LargeNet.switch8.ethg$o[0].channel datarate 1e+09bps
attr mutable ""
attr unit bps
par LargeNet.switch8.ethg$o[0].channel ber 0
attr mutable ""
par LargeNet.switch8.ethg$o[0].channel per 0
attr mutable ""
par LargeNet.switch8.ethg$o[0].channel length 10m
attr unit m
par LargeNet.switch9.ethg$o[2].channel typename "\"inet.node.ethernet.Eth1G\""
par LargeNet.switch9.ethg$o[2].channel disabled false
attr mutable ""
par LargeNet.switch9.ethg$o[2].channel delay 5e-08s
attr mutable ""
attr unit s
par LargeNet.switch9.ethg$o[2].channel datarate 1e+09bps
attr mutable ""
attr unit bps
par LargeNet.switch9.ethg$o[2].channel ber 0
attr mutable ""
par LargeNet.switch9.ethg$o[2].channel per 0
attr mutable ""
par LargeNet.switch9.ethg$o[2].channel length 10m
attr unit m
par LargeNet.switch8.ethg$o[1].channel typename "\"inet.node.ethernet.Eth1G\""
par LargeNet.switch8.ethg$o[1].channel disabled false
attr mutable ""
par LargeNet.switch8.ethg$o[1].channel delay 5e-08s
attr mutable ""
attr unit s
par LargeNet.switch8.ethg$o[1].channel datarate 1e+09bps
attr mutable ""
attr unit bps
par LargeNet.switch8.ethg$o[1].channel ber 0
attr mutable ""
par LargeNet.switch8.ethg$o[1].channel per 0
attr mutable ""
par LargeNet.switch8.ethg$o[1].channel length 10m
attr unit m
par LargeNet.switch11.ethg$o[3].channel typename "\"inet.node.ethernet.Eth1G\""
par LargeNet.switch11.ethg$o[3].channel disabled false
attr mutable ""
par LargeNet.switch11.ethg$o[3].channel delay 5e-08s
attr mutable ""
attr unit s
par LargeNet.switch11.ethg$o[3].channel datarate 1e+09bps
attr mutable ""
attr unit bps
par LargeNet.switch11.ethg$o[3].channel ber 0
attr mutable ""
par LargeNet.switch11.ethg$o[3].channel per 0
attr mutable ""
par LargeNet.switch11.ethg$o[3].channel length 10m
attr unit m
par LargeNet.switch8.ethg$o[2].channel typename "\"inet.node.ethernet.Eth1G\""
par LargeNet.switch8.ethg$o[2].channel disabled false
attr mutable ""
par LargeNet.switch8.ethg$o[2].channel delay 5e-08s
attr mutable ""
attr unit s
par LargeNet.switch8.ethg$o[2].channel datarate 1e+09bps
attr mutable ""
attr unit bps
par LargeNet.switch8.ethg$o[2].channel ber 0
attr mutable ""
par LargeNet.switch8.ethg$o[2].channel per 0
attr mutable ""
par LargeNet.switch8.ethg$o[2].channel length 10m
attr unit m
par LargeNet.switch5.ethg$o[2].channel typename "\"inet.node.ethernet.Eth1G\""
par LargeNet.switch5.ethg$o[2].channel disabled false
attr mutable ""
par LargeNet.switch5.ethg$o[2].channel delay 5e-08s
attr mutable ""
attr unit s
par LargeNet.switch5.ethg$o[2].channel datarate 1e+09bps
attr mutable ""
attr unit bps
par LargeNet.switch5.ethg$o[2].channel ber 0
attr mutable ""
par LargeNet.switch5.ethg$o[2].channel per 0
attr mutable ""
par LargeNet.switch5.ethg$o[2].channel length 10m
attr unit m
par LargeNet.switch8.ethg$o[3].channel typename "\"inet.node.ethernet.Eth1G\""
par LargeNet.switch8.ethg$o[3].channel disabled false
attr mutable ""
par LargeNet.switch8.ethg$o[3].channel delay 5e-08s
attr mutable ""
attr unit s
par LargeNet.switch8.ethg$o[3].channel datarate 1e+09bps
attr mutable ""
attr unit bps
par LargeNet.switch8.ethg$o[3].channel ber 0
attr mutable ""
par LargeNet.switch8.ethg$o[3].channel per 0
attr mutable ""
par LargeNet.switch8.ethg$o[3].channel length 10m
attr unit m
par LargeNet.switch2.ethg$o[3].channel typename "\"inet.node.ethernet.Eth1G\""
par LargeNet.switch2.ethg$o[3].channel disabled false
attr mutable ""
par LargeNet.switch2.ethg$o[3].channel delay 5e-08s
attr mutable ""
attr unit s
par LargeNet.switch2.ethg$o[3].channel datarate 1e+09bps
attr mutable ""
attr unit bps
par LargeNet.switch2.ethg$o[3].channel ber 0
attr mutable ""
par LargeNet.switch2.ethg$o[3].channel per 0
attr mutable ""
par LargeNet.switch2.ethg$o[3].channel length 10m
attr unit m
par LargeNet.switch3.ethg$o[2].channel typename "\"inet.node.ethernet.Eth1G\""
par LargeNet.switch3.ethg$o[2].channel disabled false
attr mutable ""
par LargeNet.switch3.ethg$o[2].channel delay 5e-08s
attr mutable ""
attr unit s
par LargeNet.switch3.ethg$o[2].channel datarate 1e+09bps
attr mutable ""
attr unit bps
par LargeNet.switch3.ethg$o[2].channel ber 0
attr mutable ""
par LargeNet.switch3.ethg$o[2].channel per 0
attr mutable ""
par LargeNet.switch3.ethg$o[2].channel length 10m
attr unit m
par LargeNet.host3.ethg$o.channel typename "\"inet.node.ethernet.Eth1G\""
par LargeNet.host3.ethg$o.channel disabled false
attr mutable ""
par LargeNet.host3.ethg$o.channel delay 5e-08s
attr mutable ""
attr unit s
par LargeNet.host3.ethg$o.channel datarate 1e+09bps
attr mutable ""
attr unit bps
par LargeNet.host3.ethg$o.channel ber 0
attr mutable ""
par LargeNet.host3.ethg$o.channel per 0
attr mutable ""
par LargeNet.host3.ethg$o.channel length 10m
attr unit m
par LargeNet.switch5.ethg$o[3].channel typename "\"inet.node.ethernet.Eth1G\""
par LargeNet.switch5.ethg$o[3].channel disabled false
attr mutable ""
par LargeNet.switch5.ethg$o[3].channel delay 5e-08s
attr mutable ""
attr unit s
par LargeNet.switch5.ethg$o[3].channel datarate 1e+09bps
attr mutable ""
attr unit bps
par LargeNet.switch5.ethg$o[3].channel ber 0
attr mutable ""
par LargeNet.switch5.ethg$o[3].channel per 0
attr mutable ""
par LargeNet.switch5.ethg$o[3].channel length 10m
attr unit m
par LargeNet.host2.ethg$o.channel typename "\"inet.node.ethernet.Eth1G\""
par LargeNet.host2.ethg$o.channel disabled false
attr mutable ""
par LargeNet.host2.ethg$o.channel delay 5e-08s
attr mutable ""
attr unit s
par LargeNet.host2.ethg$o.channel datarate 1e+09bps
attr mutable ""
attr unit bps
par LargeNet.host2.ethg$o.channel ber 0
attr mutable ""
par LargeNet.host2.ethg$o.channel per 0
attr mutable ""
par LargeNet.host2.ethg$o.channel length 10m
attr unit m
par LargeNet.switch6.ethg$o[2].channel typename "\"inet.node.ethernet.Eth1G\""
par LargeNet.switch6.ethg$o[2].channel disabled false
attr mutable ""
par LargeNet.switch6.ethg$o[2].channel delay 5e-08s
attr mutable ""
attr unit s
par LargeNet.switch6.ethg$o[2].channel datarate 1e+09bps
attr mutable ""
attr unit bps
par LargeNet.switch6.ethg$o[2].channel ber 0
attr mutable ""
par LargeNet.switch6.ethg$o[2].channel per 0
attr mutable ""
par LargeNet.switch6.ethg$o[2].channel length 10m
attr unit m
par LargeNet.host1.ethg$o.channel typename "\"inet.node.ethernet.Eth1G\""
par LargeNet.host1.ethg$o.channel disabled false
attr mutable ""
par LargeNet.host1.ethg$o.channel delay 5e-08s
attr mutable ""
attr unit s
par LargeNet.host1.ethg$o.channel datarate 1e+09bps
attr mutable ""
attr unit bps
par LargeNet.host1.ethg$o.channel ber 0
attr mutable ""
par LargeNet.host1.ethg$o.channel per 0
attr mutable ""
par LargeNet.host1.ethg$o.channel length 10m
attr unit m
par LargeNet.host5.ethg$o.channel typename "\"inet.node.ethernet.Eth1G\""
par LargeNet.host5.ethg$o.channel disabled false
attr mutable ""
par LargeNet.host5.ethg$o.channel delay 5e-08s
attr mutable ""
attr unit s
par LargeNet.host5.ethg$o.channel datarate 1e+09bps
attr mutable ""
attr unit bps
par LargeNet.host5.ethg$o.channel ber 0
attr mutable ""
par LargeNet.host5.ethg$o.channel per 0
attr mutable ""
par LargeNet.host5.ethg$o.channel length 10m
attr unit m
par LargeNet.switch9.ethg$o[3].channel typename "\"inet.node.ethernet.Eth1G\""
par LargeNet.switch9.ethg$o[3].channel disabled false
attr mutable ""
par LargeNet.switch9.ethg$o[3].channel delay 5e-08s
attr mutable ""
attr unit s
par LargeNet.switch9.ethg$o[3].channel datarate 1e+09bps
attr mutable ""
attr unit bps
par LargeNet.switch9.ethg$o[3].channel ber 0
attr mutable ""
par LargeNet.switch9.ethg$o[3].channel per 0
attr mutable ""
par LargeNet.switch9.ethg$o[3].channel length 10m
attr unit m
par LargeNet.host4.ethg$o.channel typename "\"inet.node.ethernet.Eth1G\""
par LargeNet.host4.ethg$o.channel disabled false
attr mutable ""
par LargeNet.host4.ethg$o.channel delay 5e-08s
attr mutable ""
attr unit s
par LargeNet.host4.ethg$o.channel datarate 1e+09bps
attr mutable ""
attr unit bps
par LargeNet.host4.ethg$o.channel ber 0
attr mutable ""
par LargeNet.host4.ethg$o.channel per 0
attr mutable ""
par LargeNet.host4.ethg$o.channel length 10m
attr unit m
par LargeNet.switch10.ethg$o[2].channel typename "\"inet.node.ethernet.Eth1G\""
par LargeNet.switch10.ethg$o[2].channel disabled false
attr mutable ""
par LargeNet.switch10.ethg$o[2].channel delay 5e-08s
attr mutable ""
attr unit s
par LargeNet.switch10.ethg$o[2].channel datarate 1e+09bps
attr mutable ""
attr unit bps
par LargeNet.switch10.ethg$o[2].channel ber 0
attr mutable ""
par LargeNet.switch10.ethg$o[2].channel per 0
attr mutable ""
par LargeNet.switch10.ethg$o[2].channel length 10m
attr unit m
par LargeNet.host6.ethg$o.channel typename "\"inet.node.ethernet.Eth1G\""
par LargeNet.host6.ethg$o.channel disabled false
attr mutable ""
par LargeNet.host6.ethg$o.channel delay 5e-08s
attr mutable ""
attr unit s
par LargeNet.host6.ethg$o.channel datarate 1e+09bps
attr mutable ""
attr unit bps
par LargeNet.host6.ethg$o.channel ber 0
attr mutable ""
par LargeNet.host6.ethg$o.channel per 0
attr mutable ""
par LargeNet.host6.ethg$o.channel length 10m
attr unit m
par LargeNet.switch8.ethg$o[4].channel typename "\"inet.node.ethernet.Eth1G\""
par LargeNet.switch8.ethg$o[4].channel disabled false
attr mutable ""
par LargeNet.switch8.ethg$o[4].channel delay 5e-08s
attr mutable ""
attr unit s
par LargeNet.switch8.ethg$o[4].channel datarate 1e+09bps
attr mutable ""
attr unit bps
par LargeNet.switch8.ethg$o[4].channel ber 0
attr mutable ""
par LargeNet.switch8.ethg$o[4].channel per 0
attr mutable ""
par LargeNet.switch8.ethg$o[4].channel length 10m
attr unit m
par LargeNet.stpTester typename "\"inet.linklayer.ieee8021d.tester.StpTester\""
par LargeNet.stpTester checkTime 0.5s
attr unit s
par LargeNet.scenarioManager typename "\"inet.common.scenario.ScenarioManager\""
par LargeNet.scenarioManager script "<script>...</script> at /home/simu5g/simu5g-workspace/inet4.5/examples/ieee8021d//Events.xml:1"
par LargeNet.l2NetworkConfigurator typename "\"inet.linklayer.configurator.L2NetworkConfigurator\""
par LargeNet.l2NetworkConfigurator config "<config>...</config> at content:1"
par LargeNet.switch1.eth[0].phys$o.channel typename "\"ned.IdealChannel\""
par LargeNet.switch1.ethg$i[0].channel typename "\"ned.IdealChannel\""
par LargeNet.switch1.eth[1].phys$o.channel typename "\"ned.IdealChannel\""
par LargeNet.switch1.ethg$i[1].channel typename "\"ned.IdealChannel\""
par LargeNet.switch1.macTable typename "\"inet.linklayer.ethernet.common.MacForwardingTable\""
par LargeNet.switch1.macTable agingTime 1s
attr unit s
par LargeNet.switch1.macTable forwardingTable []
attr mutable ""
par LargeNet.switch1.macTable forwardingTableFile "\"\""
par LargeNet.switch1.macTable interfaceTableModule "\"LargeNet.switch1.interfaceTable\""
par LargeNet.switch1.macTable displayStringTextFormat "\"addr: %a\\nvlan: %v\""
par LargeNet.switch1.interfaceTable typename "\"inet.networklayer.common.InterfaceTable\""
par LargeNet.switch1.interfaceTable displayAddresses false
par LargeNet.switch1.l2NodeConfigurator typename "\"inet.linklayer.configurator.L2NodeConfigurator\""
par LargeNet.switch1.l2NodeConfigurator interfaceTableModule "\"LargeNet.switch1.interfaceTable\""
par LargeNet.switch1.l2NodeConfigurator l2ConfiguratorModule "\"l2NetworkConfigurator\""
par LargeNet.switch1.status typename "\"inet.common.lifecycle.NodeStatus\""
par LargeNet.switch1.status initialStatus "\"UP\""
par LargeNet.switch1.stp typename "\"inet.linklayer.ieee8021d.rstp.Rstp\""
par LargeNet.switch1.stp helloTime 2s
attr unit s
par LargeNet.switch1.stp forwardDelay 6s
attr unit s
par LargeNet.switch1.stp maxAge 20s
attr unit s
par LargeNet.switch1.stp migrateTime 3s
attr unit s
par LargeNet.switch1.stp tcWhileTime 6s
attr unit s
par LargeNet.switch1.stp bridgePriority 32768
par LargeNet.switch1.stp interfaceTableModule "\"LargeNet.switch1.interfaceTable\""
par LargeNet.switch1.stp macTableModule "\"LargeNet.switch1.macTable\""
par LargeNet.switch1.stp visualize true
par LargeNet.switch1.stp autoEdge true
par LargeNet.switch1.sc typename "\"inet.common.MessageDispatcher\""
par LargeNet.switch1.sc displayStringTextFormat "\"processed %p pk (%l)\""
par LargeNet.switch1.sc forwardServiceRegistration true
par LargeNet.switch1.sc forwardProtocolRegistration true
par LargeNet.switch1.llc typename "\"inet.linklayer.ieee8022.Ieee8022Llc\""
par LargeNet.switch1.llc registerProtocol true
par LargeNet.switch1.cb typename "\"inet.common.MessageDispatcher\""
par LargeNet.switch1.cb displayStringTextFormat "\"processed %p pk (%l)\""
par LargeNet.switch1.cb forwardServiceRegistration true
par LargeNet.switch1.cb forwardProtocolRegistration true
par LargeNet.switch1.bridging typename "\"inet.linklayer.ieee8021d.relay.Ieee8021dRelay\""
par LargeNet.switch1.bridging macTableModule "\"LargeNet.switch1.macTable\""
par LargeNet.switch1.bridging interfaceTableModule "\"LargeNet.switch1.interfaceTable\""
par LargeNet.switch1.bridging displayStringTextFormat "\"proc: %p\\ndisc: %d\""
scalar LargeNet.switch1.bridging "processed frames" 0
scalar LargeNet.switch1.bridging "discarded frames" 0
scalar LargeNet.switch1.bridging "number of received BPDUs from STP module" 0
scalar LargeNet.switch1.bridging "number of received frames from network (including BPDUs)" 54
scalar LargeNet.switch1.bridging "number of dropped frames (including BPDUs)" 0
scalar LargeNet.switch1.bridging "number of delivered BPDUs to the STP module" 0
scalar LargeNet.switch1.bridging "number of dispatched BPDU frames to the network" 0
scalar LargeNet.switch1.bridging "number of dispatched non-BDPU frames to the network" 0
scalar LargeNet.switch1.bridging packetDropped:count 0
attr interpolationmode none
attr recordingmode count
attr title "packets dropped, count"
scalar LargeNet.switch1.bridging packetDropped:sum(packetBytes) 0
attr interpolationmode none
attr recordingmode sum(packetBytes)
attr title "packets dropped, sum(packetBytes)"
par LargeNet.switch1.bl typename "\"inet.common.MessageDispatcher\""
par LargeNet.switch1.bl displayStringTextFormat "\"processed %p pk (%l)\""
par LargeNet.switch1.bl forwardServiceRegistration true
par LargeNet.switch1.bl forwardProtocolRegistration true
par LargeNet.switch1.ethernet.fcsInserter.out.channel typename "\"ned.IdealChannel\""
par LargeNet.switch1.ethernet.lowerLayerIn.channel typename "\"ned.IdealChannel\""
par LargeNet.switch1.ethernet.upperLayerIn.channel typename "\"ned.IdealChannel\""
par LargeNet.switch1.ethernet.macHeaderChecker.out.channel typename "\"ned.IdealChannel\""
par LargeNet.switch1.ethernet.macHeaderInserter typename "\"inet.linklayer.ethernet.modular.EthernetMacHeaderInserter\""
par LargeNet.switch1.ethernet.macHeaderInserter displayStringTextFormat "\"processed %p pk (%l)\""
par LargeNet.switch1.ethernet.macHeaderInserter interfaceTableModule "\"LargeNet.switch1.interfaceTable\""
scalar LargeNet.switch1.ethernet.macHeaderInserter outgoingPackets:count 58
attr recordingmode count
attr source "merge(packetPushedOut, packetPulledOut)"
attr title "outgoing packets, count"
attr unit pk
scalar LargeNet.switch1.ethernet.macHeaderInserter outgoingPacketLengths:sum 192768
attr interpolationmode none
attr recordingmode sum
attr source "packetLength(merge(packetPushedOut, packetPulledOut))"
attr title "outgoing packet lengths, sum"
attr unit b
statistic LargeNet.switch1.ethernet.macHeaderInserter outgoingPacketLengths:histogram
field count 58
field mean 3323.5862068966
field stddev 3668.4227263847
field min 416
field max 8328
field sum 192768
field sqrsum 1407748608
attr interpolationmode none
attr recordingmode histogram
attr source "packetLength(merge(packetPushedOut, packetPulledOut))"
attr title "outgoing packet lengths"
attr unit b
bin	-inf	0
bin	0	0
bin	200	0
bin	400	18
bin	600	0
bin	800	20
bin	1000	0
bin	1200	0
bin	1400	0
bin	1600	0
bin	1800	0
bin	2000	0
bin	2200	0
bin	2400	0
bin	2600	0
bin	2800	0
bin	3000	0
bin	3200	0
bin	3400	0
bin	3600	0
bin	3800	0
bin	4000	0
bin	4200	0
bin	4400	0
bin	4600	0
bin	4800	0
bin	5000	0
bin	5200	0
bin	5400	0
bin	5600	0
bin	5800	0
bin	6000	0
bin	6200	0
bin	6400	0
bin	6600	0
bin	6800	0
bin	7000	0
bin	7200	0
bin	7400	0
bin	7600	0
bin	7800	0
bin	8000	0
bin	8200	20
bin	8400	0
bin	8600	0
bin	8800	0
bin	9000	0
bin	9200	0
bin	9400	0
bin	9600	0
bin	9800	0
bin	10000	0
bin	10200	0
bin	10400	0
scalar LargeNet.switch1.ethernet.macHeaderInserter flowOutgoingPacketLengths:sum 0
attr interpolationmode none
attr recordingmode sum
attr source "packetLength(demuxFlow(merge(packetPushedOut, packetPulledOut)))"
attr title "flow specific outgoing packet lengths, sum"
attr unit b
statistic LargeNet.switch1.ethernet.macHeaderInserter flowOutgoingPacketLengths:histogram
field count 0
field mean -nan
field stddev nan
field min nan
field max nan
field sum 0
field sqrsum 0
attr interpolationmode none
attr recordingmode histogram
attr source "packetLength(demuxFlow(merge(packetPushedOut, packetPulledOut)))"
attr title "flow specific outgoing packet lengths"
attr unit b
bin	-inf	0
bin	0	0
bin	1	0
scalar LargeNet.switch1.ethernet.macHeaderInserter incomingPackets:count 58
attr recordingmode count
attr source "merge(packetPushedIn, packetPulledIn)"
attr title "incoming packets, count"
attr unit pk
scalar LargeNet.switch1.ethernet.macHeaderInserter incomingPacketLengths:sum 186272
attr interpolationmode none
attr recordingmode sum
attr source "packetLength(merge(packetPushedIn, packetPulledIn))"
attr title "incoming packet lengths, sum"
attr unit b
statistic LargeNet.switch1.ethernet.macHeaderInserter incomingPacketLengths:histogram
field count 58
field mean 3211.5862068966
field stddev 3668.4227263847
field min 304
field max 8216
field sum 186272
field sqrsum 1365296128
attr interpolationmode none
attr recordingmode histogram
attr source "packetLength(merge(packetPushedIn, packetPulledIn))"
attr title "incoming packet lengths"
attr unit b
bin	-inf	0
bin	0	0
bin	200	18
bin	400	0
bin	600	0
bin	800	20
bin	1000	0
bin	1200	0
bin	1400	0
bin	1600	0
bin	1800	0
bin	2000	0
bin	2200	0
bin	2400	0
bin	2600	0
bin	2800	0
bin	3000	0
bin	3200	0
bin	3400	0
bin	3600	0
bin	3800	0
bin	4000	0
bin	4200	0
bin	4400	0
bin	4600	0
bin	4800	0
bin	5000	0
bin	5200	0
bin	5400	0
bin	5600	0
bin	5800	0
bin	6000	0
bin	6200	0
bin	6400	0
bin	6600	0
bin	6800	0
bin	7000	0
bin	7200	0
bin	7400	0
bin	7600	0
bin	7800	0
bin	8000	0
bin	8200	20
bin	8400	0
bin	8600	0
bin	8800	0
bin	9000	0
bin	9200	0
bin	9400	0
bin	9600	0
bin	9800	0
bin	10000	0
bin	10200	0
scalar LargeNet.switch1.ethernet.macHeaderInserter flowIncomingPacketLengths:sum 0
attr interpolationmode none
attr recordingmode sum
attr source "packetLength(demuxFlow(merge(packetPushedIn, packetPulledIn)))"
attr title "flow specific incoming packet lengths, sum"
attr unit b
statistic LargeNet.switch1.ethernet.macHeaderInserter flowIncomingPacketLengths:histogram
field count 0
field mean -nan
field stddev nan
field min nan
field max nan
field sum 0
field sqrsum 0
attr interpolationmode none
attr recordingmode histogram
attr source "packetLength(demuxFlow(merge(packetPushedIn, packetPulledIn)))"
attr title "flow specific incoming packet lengths"
attr unit b
bin	-inf	0
bin	0	0
bin	1	0
par LargeNet.switch1.ethernet.paddingInserter typename "\"inet.protocolelement.common.PaddingInserter\""
par LargeNet.switch1.ethernet.paddingInserter displayStringTextFormat "\"processed %p pk (%l)\""
par LargeNet.switch1.ethernet.paddingInserter minLength 480b
attr unit b
par LargeNet.switch1.ethernet.paddingInserter roundingLength 8b
attr unit b
par LargeNet.switch1.ethernet.paddingInserter insertionPosition "\"back\""
attr enum front,back
scalar LargeNet.switch1.ethernet.paddingInserter outgoingPackets:count 58
attr recordingmode count
attr source "merge(packetPushedOut, packetPulledOut)"
attr title "outgoing packets, count"
attr unit pk
scalar LargeNet.switch1.ethernet.paddingInserter outgoingPacketLengths:sum 193920
attr interpolationmode none
attr recordingmode sum
attr source "packetLength(merge(packetPushedOut, packetPulledOut))"
attr title "outgoing packet lengths, sum"
attr unit b
statistic LargeNet.switch1.ethernet.paddingInserter outgoingPacketLengths:histogram
field count 58
field mean 3343.4482758621
field stddev 3652.4908836536
field min 480
field max 8328
field sum 193920
field sqrsum 1408780800
attr interpolationmode none
attr recordingmode histogram
attr source "packetLength(merge(packetPushedOut, packetPulledOut))"
attr title "outgoing packet lengths"
attr unit b
bin	-inf	0
bin	0	0
bin	200	0
bin	400	18
bin	600	0
bin	800	20
bin	1000	0
bin	1200	0
bin	1400	0
bin	1600	0
bin	1800	0
bin	2000	0
bin	2200	0
bin	2400	0
bin	2600	0
bin	2800	0
bin	3000	0
bin	3200	0
bin	3400	0
bin	3600	0
bin	3800	0
bin	4000	0
bin	4200	0
bin	4400	0
bin	4600	0
bin	4800	0
bin	5000	0
bin	5200	0
bin	5400	0
bin	5600	0
bin	5800	0
bin	6000	0
bin	6200	0
bin	6400	0
bin	6600	0
bin	6800	0
bin	7000	0
bin	7200	0
bin	7400	0
bin	7600	0
bin	7800	0
bin	8000	0
bin	8200	20
bin	8400	0
bin	8600	0
bin	8800	0
bin	9000	0
bin	9200	0
bin	9400	0
bin	9600	0
bin	9800	0
bin	10000	0
bin	10200	0
bin	10400	0
scalar LargeNet.switch1.ethernet.paddingInserter flowOutgoingPacketLengths:sum 0
attr interpolationmode none
attr recordingmode sum
attr source "packetLength(demuxFlow(merge(packetPushedOut, packetPulledOut)))"
attr title "flow specific outgoing packet lengths, sum"
attr unit b
statistic LargeNet.switch1.ethernet.paddingInserter flowOutgoingPacketLengths:histogram
field count 0
field mean -nan
field stddev nan
field min nan
field max nan
field sum 0
field sqrsum 0
attr interpolationmode none
attr recordingmode histogram
attr source "packetLength(demuxFlow(merge(packetPushedOut, packetPulledOut)))"
attr title "flow specific outgoing packet lengths"
attr unit b
bin	-inf	0
bin	0	0
bin	1	0
scalar LargeNet.switch1.ethernet.paddingInserter incomingPackets:count 58
attr recordingmode count
attr source "merge(packetPushedIn, packetPulledIn)"
attr title "incoming packets, count"
attr unit pk
scalar LargeNet.switch1.ethernet.paddingInserter incomingPacketLengths:sum 192768
attr interpolationmode none
attr recordingmode sum
attr source "packetLength(merge(packetPushedIn, packetPulledIn))"
attr title "incoming packet lengths, sum"
attr unit b
statistic LargeNet.switch1.ethernet.paddingInserter incomingPacketLengths:histogram
field count 58
field mean 3323.5862068966
field stddev 3668.4227263847
field min 416
field max 8328
field sum 192768
field sqrsum 1407748608
attr interpolationmode none
attr recordingmode histogram
attr source "packetLength(merge(packetPushedIn, packetPulledIn))"
attr title "incoming packet lengths"
attr unit b
bin	-inf	0
bin	0	0
bin	200	0
bin	400	18
bin	600	0
bin	800	20
bin	1000	0
bin	1200	0
bin	1400	0
bin	1600	0
bin	1800	0
bin	2000	0
bin	2200	0
bin	2400	0
bin	2600	0
bin	2800	0
bin	3000	0
bin	3200	0
bin	3400	0
bin	3600	0
bin	3800	0
bin	4000	0
bin	4200	0
bin	4400	0
bin	4600	0
bin	4800	0
bin	5000	0
bin	5200	0
bin	5400	0
bin	5600	0
bin	5800	0
bin	6000	0
bin	6200	0
bin	6400	0
bin	6600	0
bin	6800	0
bin	7000	0
bin	7200	0
bin	7400	0
bin	7600	0
bin	7800	0
bin	8000	0
bin	8200	20
bin	8400	0
bin	8600	0
bin	8800	0
bin	9000	0
bin	9200	0
bin	9400	0
bin	9600	0
bin	9800	0
bin	10000	0
bin	10200	0
bin	10400	0
scalar LargeNet.switch1.ethernet.paddingInserter flowIncomingPacketLengths:sum 0
attr interpolationmode none
attr recordingmode sum
attr source "packetLength(demuxFlow(merge(packetPushedIn, packetPulledIn)))"
attr title "flow specific incoming packet lengths, sum"
attr unit b
statistic LargeNet.switch1.ethernet.paddingInserter flowIncomingPacketLengths:histogram
field count 0
field mean -nan
field stddev nan
field min nan
field max nan
field sum 0
field sqrsum 0
attr interpolationmode none
attr recordingmode histogram
attr source "packetLength(demuxFlow(merge(packetPushedIn, packetPulledIn)))"
attr title "flow specific incoming packet lengths"
attr unit b
bin	-inf	0
bin	0	0
bin	1	0
par LargeNet.switch1.ethernet.fcsInserter typename "\"inet.linklayer.ethernet.modular.EthernetFcsInserter\""
par LargeNet.switch1.ethernet.fcsInserter displayStringTextFormat "\"processed %p pk (%l)\""
par LargeNet.switch1.ethernet.fcsInserter fcsMode "\"declared\""
attr enum disabled,declared,computed
scalar LargeNet.switch1.ethernet.fcsInserter outgoingPackets:count 58
attr recordingmode count
attr source "merge(packetPushedOut, packetPulledOut)"
attr title "outgoing packets, count"
attr unit pk
scalar LargeNet.switch1.ethernet.fcsInserter outgoingPacketLengths:sum 195776
attr interpolationmode none
attr recordingmode sum
attr source "packetLength(merge(packetPushedOut, packetPulledOut))"
attr title "outgoing packet lengths, sum"
attr unit b
statistic LargeNet.switch1.ethernet.fcsInserter outgoingPacketLengths:histogram
field count 58
field mean 3375.4482758621
field stddev 3652.4908836536
field min 512
field max 8360
field sum 195776
field sqrsum 1421251072
attr interpolationmode none
attr recordingmode histogram
attr source "packetLength(merge(packetPushedOut, packetPulledOut))"
attr title "outgoing packet lengths"
attr unit b
bin	-inf	0
bin	0	0
bin	200	0
bin	400	18
bin	600	0
bin	800	20
bin	1000	0
bin	1200	0
bin	1400	0
bin	1600	0
bin	1800	0
bin	2000	0
bin	2200	0
bin	2400	0
bin	2600	0
bin	2800	0
bin	3000	0
bin	3200	0
bin	3400	0
bin	3600	0
bin	3800	0
bin	4000	0
bin	4200	0
bin	4400	0
bin	4600	0
bin	4800	0
bin	5000	0
bin	5200	0
bin	5400	0
bin	5600	0
bin	5800	0
bin	6000	0
bin	6200	0
bin	6400	0
bin	6600	0
bin	6800	0
bin	7000	0
bin	7200	0
bin	7400	0
bin	7600	0
bin	7800	0
bin	8000	0
bin	8200	20
bin	8400	0
bin	8600	0
bin	8800	0
bin	9000	0
bin	9200	0
bin	9400	0
bin	9600	0
bin	9800	0
bin	10000	0
bin	10200	0
bin	10400	0
scalar LargeNet.switch1.ethernet.fcsInserter flowOutgoingPacketLengths:sum 0
attr interpolationmode none
attr recordingmode sum
attr source "packetLength(demuxFlow(merge(packetPushedOut, packetPulledOut)))"
attr title "flow specific outgoing packet lengths, sum"
attr unit b
statistic LargeNet.switch1.ethernet.fcsInserter flowOutgoingPacketLengths:histogram
field count 0
field mean -nan
field stddev nan
field min nan
field max nan
field sum 0
field sqrsum 0
attr interpolationmode none
attr recordingmode histogram
attr source "packetLength(demuxFlow(merge(packetPushedOut, packetPulledOut)))"
attr title "flow specific outgoing packet lengths"
attr unit b
bin	-inf	0
bin	0	0
bin	1	0
scalar LargeNet.switch1.ethernet.fcsInserter incomingPackets:count 58
attr recordingmode count
attr source "merge(packetPushedIn, packetPulledIn)"
attr title "incoming packets, count"
attr unit pk
scalar LargeNet.switch1.ethernet.fcsInserter incomingPacketLengths:sum 193920
attr interpolationmode none
attr recordingmode sum
attr source "packetLength(merge(packetPushedIn, packetPulledIn))"
attr title "incoming packet lengths, sum"
attr unit b
statistic LargeNet.switch1.ethernet.fcsInserter incomingPacketLengths:histogram
field count 58
field mean 3343.4482758621
field stddev 3652.4908836536
field min 480
field max 8328
field sum 193920
field sqrsum 1408780800
attr interpolationmode none
attr recordingmode histogram
attr source "packetLength(merge(packetPushedIn, packetPulledIn))"
attr title "incoming packet lengths"
attr unit b
bin	-inf	0
bin	0	0
bin	200	0
bin	400	18
bin	600	0
bin	800	20
bin	1000	0
bin	1200	0
bin	1400	0
bin	1600	0
bin	1800	0
bin	2000	0
bin	2200	0
bin	2400	0
bin	2600	0
bin	2800	0
bin	3000	0
bin	3200	0
bin	3400	0
bin	3600	0
bin	3800	0
bin	4000	0
bin	4200	0
bin	4400	0
bin	4600	0
bin	4800	0
bin	5000	0
bin	5200	0
bin	5400	0
bin	5600	0
bin	5800	0
bin	6000	0
bin	6200	0
bin	6400	0
bin	6600	0
bin	6800	0
bin	7000	0
bin	7200	0
bin	7400	0
bin	7600	0
bin	7800	0
bin	8000	0
bin	8200	20
bin	8400	0
bin	8600	0
bin	8800	0
bin	9000	0
bin	9200	0
bin	9400	0
bin	9600	0
bin	9800	0
bin	10000	0
bin	10200	0
bin	10400	0
scalar LargeNet.switch1.ethernet.fcsInserter flowIncomingPacketLengths:sum 0
attr interpolationmode none
attr recordingmode sum
attr source "packetLength(demuxFlow(merge(packetPushedIn, packetPulledIn)))"
attr title "flow specific incoming packet lengths, sum"
attr unit b
statistic LargeNet.switch1.ethernet.fcsInserter flowIncomingPacketLengths:histogram
field count 0
field mean -nan
field stddev nan
field min nan
field max nan
field sum 0
field sqrsum 0
attr interpolationmode none
attr recordingmode histogram
attr source "packetLength(demuxFlow(merge(packetPushedIn, packetPulledIn)))"
attr title "flow specific incoming packet lengths"
attr unit b
bin	-inf	0
bin	0	0
bin	1	0
par LargeNet.switch1.ethernet.macHeaderChecker typename "\"inet.linklayer.ethernet.modular.EthernetMacHeaderChecker\""
par LargeNet.switch1.ethernet.macHeaderChecker displayStringTextFormat "\"dropped %d/%p pk (%k/%l)\""
par LargeNet.switch1.ethernet.macHeaderChecker backpressure false
par LargeNet.switch1.ethernet.macHeaderChecker interfaceTableModule "\"LargeNet.switch1.interfaceTable\""
par LargeNet.switch1.ethernet.macHeaderChecker promiscuous true
scalar LargeNet.switch1.ethernet.macHeaderChecker outgoingPackets:count 54
attr recordingmode count
attr source "merge(packetPushedOut, packetPulledOut)"
attr title "outgoing packets, count"
attr unit pk
scalar LargeNet.switch1.ethernet.macHeaderChecker outgoingPacketLengths:sum 185952
attr interpolationmode none
attr recordingmode sum
attr source "packetLength(merge(packetPushedOut, packetPulledOut))"
attr title "outgoing packet lengths, sum"
attr unit b
statistic LargeNet.switch1.ethernet.macHeaderChecker outgoingPacketLengths:histogram
field count 54
field mean 3443.5555555556
field stddev 3699.0374406623
field min 368
field max 8216
field sum 185952
field sqrsum 1365528576
attr interpolationmode none
attr recordingmode histogram
attr source "packetLength(merge(packetPushedOut, packetPulledOut))"
attr title "outgoing packet lengths"
attr unit b
bin	-inf	0
bin	0	0
bin	200	14
bin	400	0
bin	600	0
bin	800	20
bin	1000	0
bin	1200	0
bin	1400	0
bin	1600	0
bin	1800	0
bin	2000	0
bin	2200	0
bin	2400	0
bin	2600	0
bin	2800	0
bin	3000	0
bin	3200	0
bin	3400	0
bin	3600	0
bin	3800	0
bin	4000	0
bin	4200	0
bin	4400	0
bin	4600	0
bin	4800	0
bin	5000	0
bin	5200	0
bin	5400	0
bin	5600	0
bin	5800	0
bin	6000	0
bin	6200	0
bin	6400	0
bin	6600	0
bin	6800	0
bin	7000	0
bin	7200	0
bin	7400	0
bin	7600	0
bin	7800	0
bin	8000	0
bin	8200	20
bin	8400	0
bin	8600	0
bin	8800	0
bin	9000	0
bin	9200	0
bin	9400	0
bin	9600	0
bin	9800	0
bin	10000	0
bin	10200	0
scalar LargeNet.switch1.ethernet.macHeaderChecker flowOutgoingPacketLengths:sum 0
attr interpolationmode none
attr recordingmode sum
attr source "packetLength(demuxFlow(merge(packetPushedOut, packetPulledOut)))"
attr title "flow specific outgoing packet lengths, sum"
attr unit b
statistic LargeNet.switch1.ethernet.macHeaderChecker flowOutgoingPacketLengths:histogram
field count 0
field mean -nan
field stddev nan
field min nan
field max nan
field sum 0
field sqrsum 0
attr interpolationmode none
attr recordingmode histogram
attr source "packetLength(demuxFlow(merge(packetPushedOut, packetPulledOut)))"
attr title "flow specific outgoing packet lengths"
attr unit b
bin	-inf	0
bin	0	0
bin	1	0
scalar LargeNet.switch1.ethernet.macHeaderChecker incomingPackets:count 54
attr recordingmode count
attr source "merge(packetPushedIn, packetPulledIn)"
attr title "incoming packets, count"
attr unit pk
scalar LargeNet.switch1.ethernet.macHeaderChecker incomingPacketLengths:sum 192000
attr interpolationmode none
attr recordingmode sum
attr source "packetLength(merge(packetPushedIn, packetPulledIn))"
attr title "incoming packet lengths, sum"
attr unit b
statistic LargeNet.switch1.ethernet.macHeaderChecker incomingPacketLengths:histogram
field count 54
field mean 3555.5555555556
field stddev 3699.0374406623
field min 480
field max 8328
field sum 192000
field sqrsum 1407859200
attr interpolationmode none
attr recordingmode histogram
attr source "packetLength(merge(packetPushedIn, packetPulledIn))"
attr title "incoming packet lengths"
attr unit b
bin	-inf	0
bin	0	0
bin	200	0
bin	400	14
bin	600	0
bin	800	20
bin	1000	0
bin	1200	0
bin	1400	0
bin	1600	0
bin	1800	0
bin	2000	0
bin	2200	0
bin	2400	0
bin	2600	0
bin	2800	0
bin	3000	0
bin	3200	0
bin	3400	0
bin	3600	0
bin	3800	0
bin	4000	0
bin	4200	0
bin	4400	0
bin	4600	0
bin	4800	0
bin	5000	0
bin	5200	0
bin	5400	0
bin	5600	0
bin	5800	0
bin	6000	0
bin	6200	0
bin	6400	0
bin	6600	0
bin	6800	0
bin	7000	0
bin	7200	0
bin	7400	0
bin	7600	0
bin	7800	0
bin	8000	0
bin	8200	20
bin	8400	0
bin	8600	0
bin	8800	0
bin	9000	0
bin	9200	0
bin	9400	0
bin	9600	0
bin	9800	0
bin	10000	0
bin	10200	0
bin	10400	0
scalar LargeNet.switch1.ethernet.macHeaderChecker flowIncomingPacketLengths:sum 0
attr interpolationmode none
attr recordingmode sum
attr source "packetLength(demuxFlow(merge(packetPushedIn, packetPulledIn)))"
attr title "flow specific incoming packet lengths, sum"
attr unit b
statistic LargeNet.switch1.ethernet.macHeaderChecker flowIncomingPacketLengths:histogram
field count 0
field mean -nan
field stddev nan
field min nan
field max nan
field sum 0
field sqrsum 0
attr interpolationmode none
attr recordingmode histogram
attr source "packetLength(demuxFlow(merge(packetPushedIn, packetPulledIn)))"
attr title "flow specific incoming packet lengths"
attr unit b
bin	-inf	0
bin	0	0
bin	1	0
scalar LargeNet.switch1.ethernet.macHeaderChecker droppedPackets:count 0
attr recordingmode count
attr source packetDropped
attr title "dropped packets, count"
attr unit pk
scalar LargeNet.switch1.ethernet.macHeaderChecker droppedPacketLengths:sum 0
attr interpolationmode none
attr recordingmode sum
attr source packetLength(packetDropped)
attr title "dropped packet lengths, sum"
attr unit b
statistic LargeNet.switch1.ethernet.macHeaderChecker droppedPacketLengths:histogram
field count 0
field mean -nan
field stddev nan
field min nan
field max nan
field sum 0
field sqrsum 0
attr interpolationmode none
attr recordingmode histogram
attr source packetLength(packetDropped)
attr title "dropped packet lengths"
attr unit b
bin	-inf	0
bin	0	0
bin	1	0
scalar LargeNet.switch1.ethernet.macHeaderChecker flowDroppedPacketLengths:sum 0
attr interpolationmode none
attr recordingmode sum
attr source packetLength(demuxFlow(packetDropped))
attr title "flow specific dropped packet lengths, sum"
attr unit b
statistic LargeNet.switch1.ethernet.macHeaderChecker flowDroppedPacketLengths:histogram
field count 0
field mean -nan
field stddev nan
field min nan
field max nan
field sum 0
field sqrsum 0
attr interpolationmode none
attr recordingmode histogram
attr source packetLength(demuxFlow(packetDropped))
attr title "flow specific dropped packet lengths"
attr unit b
bin	-inf	0
bin	0	0
bin	1	0
par LargeNet.switch1.ethernet.fcsChecker typename "\"inet.linklayer.ethernet.modular.EthernetFcsChecker\""
par LargeNet.switch1.ethernet.fcsChecker displayStringTextFormat "\"dropped %d/%p pk (%k/%l)\""
par LargeNet.switch1.ethernet.fcsChecker backpressure false
par LargeNet.switch1.ethernet.fcsChecker popFcs true
scalar LargeNet.switch1.ethernet.fcsChecker outgoingPackets:count 54
attr recordingmode count
attr source "merge(packetPushedOut, packetPulledOut)"
attr title "outgoing packets, count"
attr unit pk
scalar LargeNet.switch1.ethernet.fcsChecker outgoingPacketLengths:sum 192000
attr interpolationmode none
attr recordingmode sum
attr source "packetLength(merge(packetPushedOut, packetPulledOut))"
attr title "outgoing packet lengths, sum"
attr unit b
statistic LargeNet.switch1.ethernet.fcsChecker outgoingPacketLengths:histogram
field count 54
field mean 3555.5555555556
field stddev 3699.0374406623
field min 480
field max 8328
field sum 192000
field sqrsum 1407859200
attr interpolationmode none
attr recordingmode histogram
attr source "packetLength(merge(packetPushedOut, packetPulledOut))"
attr title "outgoing packet lengths"
attr unit b
bin	-inf	0
bin	0	0
bin	200	0
bin	400	14
bin	600	0
bin	800	20
bin	1000	0
bin	1200	0
bin	1400	0
bin	1600	0
bin	1800	0
bin	2000	0
bin	2200	0
bin	2400	0
bin	2600	0
bin	2800	0
bin	3000	0
bin	3200	0
bin	3400	0
bin	3600	0
bin	3800	0
bin	4000	0
bin	4200	0
bin	4400	0
bin	4600	0
bin	4800	0
bin	5000	0
bin	5200	0
bin	5400	0
bin	5600	0
bin	5800	0
bin	6000	0
bin	6200	0
bin	6400	0
bin	6600	0
bin	6800	0
bin	7000	0
bin	7200	0
bin	7400	0
bin	7600	0
bin	7800	0
bin	8000	0
bin	8200	20
bin	8400	0
bin	8600	0
bin	8800	0
bin	9000	0
bin	9200	0
bin	9400	0
bin	9600	0
bin	9800	0
bin	10000	0
bin	10200	0
bin	10400	0
scalar LargeNet.switch1.ethernet.fcsChecker flowOutgoingPacketLengths:sum 0
attr interpolationmode none
attr recordingmode sum
attr source "packetLength(demuxFlow(merge(packetPushedOut, packetPulledOut)))"
attr title "flow specific outgoing packet lengths, sum"
attr unit b
statistic LargeNet.switch1.ethernet.fcsChecker flowOutgoingPacketLengths:histogram
field count 0
field mean -nan
field stddev nan
field min nan
field max nan
field sum 0
field sqrsum 0
attr interpolationmode none
attr recordingmode histogram
attr source "packetLength(demuxFlow(merge(packetPushedOut, packetPulledOut)))"
attr title "flow specific outgoing packet lengths"
attr unit b
bin	-inf	0
bin	0	0
bin	1	0
scalar LargeNet.switch1.ethernet.fcsChecker incomingPackets:count 54
attr recordingmode count
attr source "merge(packetPushedIn, packetPulledIn)"
attr title "incoming packets, count"
attr unit pk
scalar LargeNet.switch1.ethernet.fcsChecker incomingPacketLengths:sum 193728
attr interpolationmode none
attr recordingmode sum
attr source "packetLength(merge(packetPushedIn, packetPulledIn))"
attr title "incoming packet lengths, sum"
attr unit b
statistic LargeNet.switch1.ethernet.fcsChecker incomingPacketLengths:histogram
field count 54
field mean 3587.5555555556
field stddev 3699.0374406623
field min 512
field max 8360
field sum 193728
field sqrsum 1420202496
attr interpolationmode none
attr recordingmode histogram
attr source "packetLength(merge(packetPushedIn, packetPulledIn))"
attr title "incoming packet lengths"
attr unit b
bin	-inf	0
bin	0	0
bin	200	0
bin	400	14
bin	600	0
bin	800	20
bin	1000	0
bin	1200	0
bin	1400	0
bin	1600	0
bin	1800	0
bin	2000	0
bin	2200	0
bin	2400	0
bin	2600	0
bin	2800	0
bin	3000	0
bin	3200	0
bin	3400	0
bin	3600	0
bin	3800	0
bin	4000	0
bin	4200	0
bin	4400	0
bin	4600	0
bin	4800	0
bin	5000	0
bin	5200	0
bin	5400	0
bin	5600	0
bin	5800	0
bin	6000	0
bin	6200	0
bin	6400	0
bin	6600	0
bin	6800	0
bin	7000	0
bin	7200	0
bin	7400	0
bin	7600	0
bin	7800	0
bin	8000	0
bin	8200	20
bin	8400	0
bin	8600	0
bin	8800	0
bin	9000	0
bin	9200	0
bin	9400	0
bin	9600	0
bin	9800	0
bin	10000	0
bin	10200	0
bin	10400	0
scalar LargeNet.switch1.ethernet.fcsChecker flowIncomingPacketLengths:sum 0
attr interpolationmode none
attr recordingmode sum
attr source "packetLength(demuxFlow(merge(packetPushedIn, packetPulledIn)))"
attr title "flow specific incoming packet lengths, sum"
attr unit b
statistic LargeNet.switch1.ethernet.fcsChecker flowIncomingPacketLengths:histogram
field count 0
field mean -nan
field stddev nan
field min nan
field max nan
field sum 0
field sqrsum 0
attr interpolationmode none
attr recordingmode histogram
attr source "packetLength(demuxFlow(merge(packetPushedIn, packetPulledIn)))"
attr title "flow specific incoming packet lengths"
attr unit b
bin	-inf	0
bin	0	0
bin	1	0
scalar LargeNet.switch1.ethernet.fcsChecker droppedPackets:count 0
attr recordingmode count
attr source packetDropped
attr title "dropped packets, count"
attr unit pk
scalar LargeNet.switch1.ethernet.fcsChecker droppedPacketLengths:sum 0
attr interpolationmode none
attr recordingmode sum
attr source packetLength(packetDropped)
attr title "dropped packet lengths, sum"
attr unit b
statistic LargeNet.switch1.ethernet.fcsChecker droppedPacketLengths:histogram
field count 0
field mean -nan
field stddev nan
field min nan
field max nan
field sum 0
field sqrsum 0
attr interpolationmode none
attr recordingmode histogram
attr source packetLength(packetDropped)
attr title "dropped packet lengths"
attr unit b
bin	-inf	0
bin	0	0
bin	1	0
scalar LargeNet.switch1.ethernet.fcsChecker flowDroppedPacketLengths:sum 0
attr interpolationmode none
attr recordingmode sum
attr source packetLength(demuxFlow(packetDropped))
attr title "flow specific dropped packet lengths, sum"
attr unit b
statistic LargeNet.switch1.ethernet.fcsChecker flowDroppedPacketLengths:histogram
field count 0
field mean -nan
field stddev nan
field min nan
field max nan
field sum 0
field sqrsum 0
attr interpolationmode none
attr recordingmode histogram
attr source packetLength(demuxFlow(packetDropped))
attr title "flow specific dropped packet lengths"
attr unit b
bin	-inf	0
bin	0	0
bin	1	0
par LargeNet.switch1.ethernet typename "\"inet.linklayer.ethernet.modular.EthernetLayer\""
par LargeNet.switch1.ethernet interfaceTableModule "\"LargeNet.switch1.interfaceTable\""
par LargeNet.switch1.ethernet hasSocketSupport false
par LargeNet.switch1.ieee8021q.qTagHeaderInserter.out.channel typename "\"ned.IdealChannel\""
par LargeNet.switch1.ieee8021q.lowerLayerIn.channel typename "\"ned.IdealChannel\""
par LargeNet.switch1.ieee8021q.upperLayerIn.channel typename "\"ned.IdealChannel\""
par LargeNet.switch1.ieee8021q.qTagHeaderChecker.out.channel typename "\"ned.IdealChannel\""
par LargeNet.switch1.ieee8021q.qTagHeaderInserter typename "\"inet.linklayer.ieee8021q.Ieee8021qTagEpdHeaderInserter\""
par LargeNet.switch1.ieee8021q.qTagHeaderInserter displayStringTextFormat "\"processed %p pk (%l)\""
par LargeNet.switch1.ieee8021q.qTagHeaderInserter vlanTagType "\"c\""
attr enum c,s
par LargeNet.switch1.ieee8021q.qTagHeaderInserter nextProtocol "\"ethernetmac\""
par LargeNet.switch1.ieee8021q.qTagHeaderInserter defaultVlanId -1
par LargeNet.switch1.ieee8021q.qTagHeaderInserter defaultPcp -1
par LargeNet.switch1.ieee8021q.qTagHeaderInserter defaultUserPriority -1
par LargeNet.switch1.ieee8021q.qTagHeaderInserter defaultDropEligible -1
scalar LargeNet.switch1.ieee8021q.qTagHeaderInserter outgoingPackets:count 0
attr recordingmode count
attr source "merge(packetPushedOut, packetPulledOut)"
attr title "outgoing packets, count"
attr unit pk
scalar LargeNet.switch1.ieee8021q.qTagHeaderInserter outgoingPacketLengths:sum 0
attr interpolationmode none
attr recordingmode sum
attr source "packetLength(merge(packetPushedOut, packetPulledOut))"
attr title "outgoing packet lengths, sum"
attr unit b
statistic LargeNet.switch1.ieee8021q.qTagHeaderInserter outgoingPacketLengths:histogram
field count 0
field mean -nan
field stddev nan
field min nan
field max nan
field sum 0
field sqrsum 0
attr interpolationmode none
attr recordingmode histogram
attr source "packetLength(merge(packetPushedOut, packetPulledOut))"
attr title "outgoing packet lengths"
attr unit b
bin	-inf	0
bin	0	0
bin	1	0
scalar LargeNet.switch1.ieee8021q.qTagHeaderInserter flowOutgoingPacketLengths:sum 0
attr interpolationmode none
attr recordingmode sum
attr source "packetLength(demuxFlow(merge(packetPushedOut, packetPulledOut)))"
attr title "flow specific outgoing packet lengths, sum"
attr unit b
statistic LargeNet.switch1.ieee8021q.qTagHeaderInserter flowOutgoingPacketLengths:histogram
field count 0
field mean -nan
field stddev nan
field min nan
field max nan
field sum 0
field sqrsum 0
attr interpolationmode none
attr recordingmode histogram
attr source "packetLength(demuxFlow(merge(packetPushedOut, packetPulledOut)))"
attr title "flow specific outgoing packet lengths"
attr unit b
bin	-inf	0
bin	0	0
bin	1	0
scalar LargeNet.switch1.ieee8021q.qTagHeaderInserter incomingPackets:count 0
attr recordingmode count
attr source "merge(packetPushedIn, packetPulledIn)"
attr title "incoming packets, count"
attr unit pk
scalar LargeNet.switch1.ieee8021q.qTagHeaderInserter incomingPacketLengths:sum 0
attr interpolationmode none
attr recordingmode sum
attr source "packetLength(merge(packetPushedIn, packetPulledIn))"
attr title "incoming packet lengths, sum"
attr unit b
statistic LargeNet.switch1.ieee8021q.qTagHeaderInserter incomingPacketLengths:histogram
field count 0
field mean -nan
field stddev nan
field min nan
field max nan
field sum 0
field sqrsum 0
attr interpolationmode none
attr recordingmode histogram
attr source "packetLength(merge(packetPushedIn, packetPulledIn))"
attr title "incoming packet lengths"
attr unit b
bin	-inf	0
bin	0	0
bin	1	0
scalar LargeNet.switch1.ieee8021q.qTagHeaderInserter flowIncomingPacketLengths:sum 0
attr interpolationmode none
attr recordingmode sum
attr source "packetLength(demuxFlow(merge(packetPushedIn, packetPulledIn)))"
attr title "flow specific incoming packet lengths, sum"
attr unit b
statistic LargeNet.switch1.ieee8021q.qTagHeaderInserter flowIncomingPacketLengths:histogram
field count 0
field mean -nan
field stddev nan
field min nan
field max nan
field sum 0
field sqrsum 0
attr interpolationmode none
attr recordingmode histogram
attr source "packetLength(demuxFlow(merge(packetPushedIn, packetPulledIn)))"
attr title "flow specific incoming packet lengths"
attr unit b
bin	-inf	0
bin	0	0
bin	1	0
par LargeNet.switch1.ieee8021q.qTagHeaderChecker typename "\"inet.linklayer.ieee8021q.Ieee8021qTagEpdHeaderChecker\""
par LargeNet.switch1.ieee8021q.qTagHeaderChecker displayStringTextFormat "\"dropped %d/%p pk (%k/%l)\""
par LargeNet.switch1.ieee8021q.qTagHeaderChecker backpressure false
par LargeNet.switch1.ieee8021q.qTagHeaderChecker vlanTagType "\"c\""
attr enum c,s
par LargeNet.switch1.ieee8021q.qTagHeaderChecker vlanIdFilter []
attr mutable ""
scalar LargeNet.switch1.ieee8021q.qTagHeaderChecker outgoingPackets:count 0
attr recordingmode count
attr source "merge(packetPushedOut, packetPulledOut)"
attr title "outgoing packets, count"
attr unit pk
scalar LargeNet.switch1.ieee8021q.qTagHeaderChecker outgoingPacketLengths:sum 0
attr interpolationmode none
attr recordingmode sum
attr source "packetLength(merge(packetPushedOut, packetPulledOut))"
attr title "outgoing packet lengths, sum"
attr unit b
statistic LargeNet.switch1.ieee8021q.qTagHeaderChecker outgoingPacketLengths:histogram
field count 0
field mean -nan
field stddev nan
field min nan
field max nan
field sum 0
field sqrsum 0
attr interpolationmode none
attr recordingmode histogram
attr source "packetLength(merge(packetPushedOut, packetPulledOut))"
attr title "outgoing packet lengths"
attr unit b
bin	-inf	0
bin	0	0
bin	1	0
scalar LargeNet.switch1.ieee8021q.qTagHeaderChecker flowOutgoingPacketLengths:sum 0
attr interpolationmode none
attr recordingmode sum
attr source "packetLength(demuxFlow(merge(packetPushedOut, packetPulledOut)))"
attr title "flow specific outgoing packet lengths, sum"
attr unit b
statistic LargeNet.switch1.ieee8021q.qTagHeaderChecker flowOutgoingPacketLengths:histogram
field count 0
field mean -nan
field stddev nan
field min nan
field max nan
field sum 0
field sqrsum 0
attr interpolationmode none
attr recordingmode histogram
attr source "packetLength(demuxFlow(merge(packetPushedOut, packetPulledOut)))"
attr title "flow specific outgoing packet lengths"
attr unit b
bin	-inf	0
bin	0	0
bin	1	0
scalar LargeNet.switch1.ieee8021q.qTagHeaderChecker incomingPackets:count 0
attr recordingmode count
attr source "merge(packetPushedIn, packetPulledIn)"
attr title "incoming packets, count"
attr unit pk
scalar LargeNet.switch1.ieee8021q.qTagHeaderChecker incomingPacketLengths:sum 0
attr interpolationmode none
attr recordingmode sum
attr source "packetLength(merge(packetPushedIn, packetPulledIn))"
attr title "incoming packet lengths, sum"
attr unit b
statistic LargeNet.switch1.ieee8021q.qTagHeaderChecker incomingPacketLengths:histogram
field count 0
field mean -nan
field stddev nan
field min nan
field max nan
field sum 0
field sqrsum 0
attr interpolationmode none
attr recordingmode histogram
attr source "packetLength(merge(packetPushedIn, packetPulledIn))"
attr title "incoming packet lengths"
attr unit b
bin	-inf	0
bin	0	0
bin	1	0
scalar LargeNet.switch1.ieee8021q.qTagHeaderChecker flowIncomingPacketLengths:sum 0
attr interpolationmode none
attr recordingmode sum
attr source "packetLength(demuxFlow(merge(packetPushedIn, packetPulledIn)))"
attr title "flow specific incoming packet lengths, sum"
attr unit b
statistic LargeNet.switch1.ieee8021q.qTagHeaderChecker flowIncomingPacketLengths:histogram
field count 0
field mean -nan
field stddev nan
field min nan
field max nan
field sum 0
field sqrsum 0
attr interpolationmode none
attr recordingmode histogram
attr source "packetLength(demuxFlow(merge(packetPushedIn, packetPulledIn)))"
attr title "flow specific incoming packet lengths"
attr unit b
bin	-inf	0
bin	0	0
bin	1	0
scalar LargeNet.switch1.ieee8021q.qTagHeaderChecker droppedPackets:count 0
attr recordingmode count
attr source packetDropped
attr title "dropped packets, count"
attr unit pk
scalar LargeNet.switch1.ieee8021q.qTagHeaderChecker droppedPacketLengths:sum 0
attr interpolationmode none
attr recordingmode sum
attr source packetLength(packetDropped)
attr title "dropped packet lengths, sum"
attr unit b
statistic LargeNet.switch1.ieee8021q.qTagHeaderChecker droppedPacketLengths:histogram
field count 0
field mean -nan
field stddev nan
field min nan
field max nan
field sum 0
field sqrsum 0
attr interpolationmode none
attr recordingmode histogram
attr source packetLength(packetDropped)
attr title "dropped packet lengths"
attr unit b
bin	-inf	0
bin	0	0
bin	1	0
scalar LargeNet.switch1.ieee8021q.qTagHeaderChecker flowDroppedPacketLengths:sum 0
attr interpolationmode none
attr recordingmode sum
attr source packetLength(demuxFlow(packetDropped))
attr title "flow specific dropped packet lengths, sum"
attr unit b
statistic LargeNet.switch1.ieee8021q.qTagHeaderChecker flowDroppedPacketLengths:histogram
field count 0
field mean -nan
field stddev nan
field min nan
field max nan
field sum 0
field sqrsum 0
attr interpolationmode none
attr recordingmode histogram
attr source packetLength(demuxFlow(packetDropped))
attr title "flow specific dropped packet lengths"
attr unit b
bin	-inf	0
bin	0	0
bin	1	0
par LargeNet.switch1.ieee8021q typename "\"inet.linklayer.ieee8021q.Ieee8021qProtocol\""
par LargeNet.switch1.ieee8021q vlanTagType "\"c\""
par LargeNet.switch1.ieee8021q hasSocketSupport false
par LargeNet.switch1.ieee8021r.upperLayerIn.channel typename "\"ned.IdealChannel\""
par LargeNet.switch1.ieee8021r.rTagHeaderInserter.out.channel typename "\"ned.IdealChannel\""
par LargeNet.switch1.ieee8021r.lowerLayerIn.channel typename "\"ned.IdealChannel\""
par LargeNet.switch1.ieee8021r.rTagHeaderChecker.out.channel typename "\"ned.IdealChannel\""
par LargeNet.switch1.ieee8021r.rTagHeaderInserter typename "\"inet.linklayer.ieee8021r.Ieee8021rTagEpdHeaderInserter\""
par LargeNet.switch1.ieee8021r.rTagHeaderInserter displayStringTextFormat "\"processed %p pk (%l)\""
par LargeNet.switch1.ieee8021r.rTagHeaderInserter nextProtocol "\"ieee8021qctag\""
scalar LargeNet.switch1.ieee8021r.rTagHeaderInserter outgoingPackets:count 0
attr recordingmode count
attr source "merge(packetPushedOut, packetPulledOut)"
attr title "outgoing packets, count"
attr unit pk
scalar LargeNet.switch1.ieee8021r.rTagHeaderInserter outgoingPacketLengths:sum 0
attr interpolationmode none
attr recordingmode sum
attr source "packetLength(merge(packetPushedOut, packetPulledOut))"
attr title "outgoing packet lengths, sum"
attr unit b
statistic LargeNet.switch1.ieee8021r.rTagHeaderInserter outgoingPacketLengths:histogram
field count 0
field mean -nan
field stddev nan
field min nan
field max nan
field sum 0
field sqrsum 0
attr interpolationmode none
attr recordingmode histogram
attr source "packetLength(merge(packetPushedOut, packetPulledOut))"
attr title "outgoing packet lengths"
attr unit b
bin	-inf	0
bin	0	0
bin	1	0
scalar LargeNet.switch1.ieee8021r.rTagHeaderInserter flowOutgoingPacketLengths:sum 0
attr interpolationmode none
attr recordingmode sum
attr source "packetLength(demuxFlow(merge(packetPushedOut, packetPulledOut)))"
attr title "flow specific outgoing packet lengths, sum"
attr unit b
statistic LargeNet.switch1.ieee8021r.rTagHeaderInserter flowOutgoingPacketLengths:histogram
field count 0
field mean -nan
field stddev nan
field min nan
field max nan
field sum 0
field sqrsum 0
attr interpolationmode none
attr recordingmode histogram
attr source "packetLength(demuxFlow(merge(packetPushedOut, packetPulledOut)))"
attr title "flow specific outgoing packet lengths"
attr unit b
bin	-inf	0
bin	0	0
bin	1	0
scalar LargeNet.switch1.ieee8021r.rTagHeaderInserter incomingPackets:count 0
attr recordingmode count
attr source "merge(packetPushedIn, packetPulledIn)"
attr title "incoming packets, count"
attr unit pk
scalar LargeNet.switch1.ieee8021r.rTagHeaderInserter incomingPacketLengths:sum 0
attr interpolationmode none
attr recordingmode sum
attr source "packetLength(merge(packetPushedIn, packetPulledIn))"
attr title "incoming packet lengths, sum"
attr unit b
statistic LargeNet.switch1.ieee8021r.rTagHeaderInserter incomingPacketLengths:histogram
field count 0
field mean -nan
field stddev nan
field min nan
field max nan
field sum 0
field sqrsum 0
attr interpolationmode none
attr recordingmode histogram
attr source "packetLength(merge(packetPushedIn, packetPulledIn))"
attr title "incoming packet lengths"
attr unit b
bin	-inf	0
bin	0	0
bin	1	0
scalar LargeNet.switch1.ieee8021r.rTagHeaderInserter flowIncomingPacketLengths:sum 0
attr interpolationmode none
attr recordingmode sum
attr source "packetLength(demuxFlow(merge(packetPushedIn, packetPulledIn)))"
attr title "flow specific incoming packet lengths, sum"
attr unit b
statistic LargeNet.switch1.ieee8021r.rTagHeaderInserter flowIncomingPacketLengths:histogram
field count 0
field mean -nan
field stddev nan
field min nan
field max nan
field sum 0
field sqrsum 0
attr interpolationmode none
attr recordingmode histogram
attr source "packetLength(demuxFlow(merge(packetPushedIn, packetPulledIn)))"
attr title "flow specific incoming packet lengths"
attr unit b
bin	-inf	0
bin	0	0
bin	1	0
par LargeNet.switch1.ieee8021r.rTagHeaderChecker typename "\"inet.linklayer.ieee8021r.Ieee8021rTagEpdHeaderChecker\""
par LargeNet.switch1.ieee8021r.rTagHeaderChecker displayStringTextFormat "\"dropped %d/%p pk (%k/%l)\""
par LargeNet.switch1.ieee8021r.rTagHeaderChecker backpressure false
scalar LargeNet.switch1.ieee8021r.rTagHeaderChecker outgoingPackets:count 0
attr recordingmode count
attr source "merge(packetPushedOut, packetPulledOut)"
attr title "outgoing packets, count"
attr unit pk
scalar LargeNet.switch1.ieee8021r.rTagHeaderChecker outgoingPacketLengths:sum 0
attr interpolationmode none
attr recordingmode sum
attr source "packetLength(merge(packetPushedOut, packetPulledOut))"
attr title "outgoing packet lengths, sum"
attr unit b
statistic LargeNet.switch1.ieee8021r.rTagHeaderChecker outgoingPacketLengths:histogram
field count 0
field mean -nan
field stddev nan
field min nan
field max nan
field sum 0
field sqrsum 0
attr interpolationmode none
attr recordingmode histogram
attr source "packetLength(merge(packetPushedOut, packetPulledOut))"
attr title "outgoing packet lengths"
attr unit b
bin	-inf	0
bin	0	0
bin	1	0
scalar LargeNet.switch1.ieee8021r.rTagHeaderChecker flowOutgoingPacketLengths:sum 0
attr interpolationmode none
attr recordingmode sum
attr source "packetLength(demuxFlow(merge(packetPushedOut, packetPulledOut)))"
attr title "flow specific outgoing packet lengths, sum"
attr unit b
statistic LargeNet.switch1.ieee8021r.rTagHeaderChecker flowOutgoingPacketLengths:histogram
field count 0
field mean -nan
field stddev nan
field min nan
field max nan
field sum 0
field sqrsum 0
attr interpolationmode none
attr recordingmode histogram
attr source "packetLength(demuxFlow(merge(packetPushedOut, packetPulledOut)))"
attr title "flow specific outgoing packet lengths"
attr unit b
bin	-inf	0
bin	0	0
bin	1	0
scalar LargeNet.switch1.ieee8021r.rTagHeaderChecker incomingPackets:count 0
attr recordingmode count
attr source "merge(packetPushedIn, packetPulledIn)"
attr title "incoming packets, count"
attr unit pk
scalar LargeNet.switch1.ieee8021r.rTagHeaderChecker incomingPacketLengths:sum 0
attr interpolationmode none
attr recordingmode sum
attr source "packetLength(merge(packetPushedIn, packetPulledIn))"
attr title "incoming packet lengths, sum"
attr unit b
statistic LargeNet.switch1.ieee8021r.rTagHeaderChecker incomingPacketLengths:histogram
field count 0
field mean -nan
field stddev nan
field min nan
field max nan
field sum 0
field sqrsum 0
attr interpolationmode none
attr recordingmode histogram
attr source "packetLength(merge(packetPushedIn, packetPulledIn))"
attr title "incoming packet lengths"
attr unit b
bin	-inf	0
bin	0	0
bin	1	0
scalar LargeNet.switch1.ieee8021r.rTagHeaderChecker flowIncomingPacketLengths:sum 0
attr interpolationmode none
attr recordingmode sum
attr source "packetLength(demuxFlow(merge(packetPushedIn, packetPulledIn)))"
attr title "flow specific incoming packet lengths, sum"
attr unit b
statistic LargeNet.switch1.ieee8021r.rTagHeaderChecker flowIncomingPacketLengths:histogram
field count 0
field mean -nan
field stddev nan
field min nan
field max nan
field sum 0
field sqrsum 0
attr interpolationmode none
attr recordingmode histogram
attr source "packetLength(demuxFlow(merge(packetPushedIn, packetPulledIn)))"
attr title "flow specific incoming packet lengths"
attr unit b
bin	-inf	0
bin	0	0
bin	1	0
scalar LargeNet.switch1.ieee8021r.rTagHeaderChecker droppedPackets:count 0
attr recordingmode count
attr source packetDropped
attr title "dropped packets, count"
attr unit pk
scalar LargeNet.switch1.ieee8021r.rTagHeaderChecker droppedPacketLengths:sum 0
attr interpolationmode none
attr recordingmode sum
attr source packetLength(packetDropped)
attr title "dropped packet lengths, sum"
attr unit b
statistic LargeNet.switch1.ieee8021r.rTagHeaderChecker droppedPacketLengths:histogram
field count 0
field mean -nan
field stddev nan
field min nan
field max nan
field sum 0
field sqrsum 0
attr interpolationmode none
attr recordingmode histogram
attr source packetLength(packetDropped)
attr title "dropped packet lengths"
attr unit b
bin	-inf	0
bin	0	0
bin	1	0
scalar LargeNet.switch1.ieee8021r.rTagHeaderChecker flowDroppedPacketLengths:sum 0
attr interpolationmode none
attr recordingmode sum
attr source packetLength(demuxFlow(packetDropped))
attr title "flow specific dropped packet lengths, sum"
attr unit b
statistic LargeNet.switch1.ieee8021r.rTagHeaderChecker flowDroppedPacketLengths:histogram
field count 0
field mean -nan
field stddev nan
field min nan
field max nan
field sum 0
field sqrsum 0
attr interpolationmode none
attr recordingmode histogram
attr source packetLength(demuxFlow(packetDropped))
attr title "flow specific dropped packet lengths"
attr unit b
bin	-inf	0
bin	0	0
bin	1	0
par LargeNet.switch1.ieee8021r typename "\"inet.linklayer.ieee8021r.Ieee8021rProtocol\""
par LargeNet.switch1.li typename "\"inet.common.MessageDispatcher\""
par LargeNet.switch1.li displayStringTextFormat "\"processed %p pk (%l)\""
par LargeNet.switch1.li forwardServiceRegistration true
par LargeNet.switch1.li forwardProtocolRegistration true
par LargeNet.switch1.eth[0].phyLayer.lowerLayerOut.channel typename "\"ned.IdealChannel\""
par LargeNet.switch1.eth[0].phys$i.channel typename "\"ned.IdealChannel\""
par LargeNet.switch1.eth[0].upperLayerIn.channel typename "\"ned.IdealChannel\""
par LargeNet.switch1.eth[0].macLayer.upperLayerOut.channel typename "\"ned.IdealChannel\""
par LargeNet.switch1.eth[0].macLayer.upperLayerIn.channel typename "\"ned.IdealChannel\""
par LargeNet.switch1.eth[0].macLayer.outboundEmitter.out.channel typename "\"ned.IdealChannel\""
par LargeNet.switch1.eth[0].macLayer.lowerLayerIn.channel typename "\"ned.IdealChannel\""
par LargeNet.switch1.eth[0].macLayer.fcsChecker.out.channel typename "\"ned.IdealChannel\""
par LargeNet.switch1.eth[0].macLayer.queue typename "\"inet.queueing.queue.PacketQueue\""
par LargeNet.switch1.eth[0].macLayer.queue displayStringTextFormat "\"contains %p pk (%l) pushed %u\\npulled %o removed %r dropped %d\""
par LargeNet.switch1.eth[0].macLayer.queue packetCapacity -1
par LargeNet.switch1.eth[0].macLayer.queue dataCapacity -1b
attr unit b
par LargeNet.switch1.eth[0].macLayer.queue dropperClass "\"\""
par LargeNet.switch1.eth[0].macLayer.queue comparatorClass "\"\""
par LargeNet.switch1.eth[0].macLayer.queue bufferModule "\"\""
scalar LargeNet.switch1.eth[0].macLayer.queue queueLength:last 0
attr autoWarmupFilter false
attr interpolationmode sample-hold
attr recordingmode last
attr source "warmup(atomic(constant0(packetPushEnded) + count(packetPushStarted) - count(packetPulled) - count(packetRemoved) - count(packetDropped)))"
attr title "queue length, last"
attr unit pk
scalar LargeNet.switch1.eth[0].macLayer.queue queueLength:max 0
attr autoWarmupFilter false
attr interpolationmode sample-hold
attr recordingmode max
attr source "warmup(atomic(constant0(packetPushEnded) + count(packetPushStarted) - count(packetPulled) - count(packetRemoved) - count(packetDropped)))"
attr title "queue length, max"
attr unit pk
scalar LargeNet.switch1.eth[0].macLayer.queue queueLength:timeavg 0
attr autoWarmupFilter false
attr interpolationmode sample-hold
attr recordingmode timeavg
attr source "warmup(atomic(constant0(packetPushEnded) + count(packetPushStarted) - count(packetPulled) - count(packetRemoved) - count(packetDropped)))"
attr title "queue length, timeavg"
attr unit pk
scalar LargeNet.switch1.eth[0].macLayer.queue queueBitLength:last 0
attr autoWarmupFilter false
attr interpolationmode sample-hold
attr recordingmode last
attr source "warmup(atomic(constant0(packetPushEnded) + sum(packetLength(packetPushStarted)) - sum(packetLength(packetPulled)) - sum(packetLength(packetRemoved)) - sum(packetLength(packetDropped))))"
attr title "queue bit length, last"
attr unit b
scalar LargeNet.switch1.eth[0].macLayer.queue queueBitLength:max 0
attr autoWarmupFilter false
attr interpolationmode sample-hold
attr recordingmode max
attr source "warmup(atomic(constant0(packetPushEnded) + sum(packetLength(packetPushStarted)) - sum(packetLength(packetPulled)) - sum(packetLength(packetRemoved)) - sum(packetLength(packetDropped))))"
attr title "queue bit length, max"
attr unit b
scalar LargeNet.switch1.eth[0].macLayer.queue queueBitLength:timeavg 0
attr autoWarmupFilter false
attr interpolationmode sample-hold
attr recordingmode timeavg
attr source "warmup(atomic(constant0(packetPushEnded) + sum(packetLength(packetPushStarted)) - sum(packetLength(packetPulled)) - sum(packetLength(packetRemoved)) - sum(packetLength(packetDropped))))"
attr title "queue bit length, timeavg"
attr unit b
statistic LargeNet.switch1.eth[0].macLayer.queue queueingTime:histogram
field count 29
field mean 0
field stddev 0
field min 0
field max 0
field sum 0
field sqrsum 0
attr interpolationmode none
attr recordingmode histogram
attr source queueingTime(packetPulled)
attr title "queueing times"
attr unit s
bin	-inf	0
bin	-0.5	0
bin	-0.48	0
bin	-0.46	0
bin	-0.44	0
bin	-0.42	0
bin	-0.4	0
bin	-0.38	0
bin	-0.36	0
bin	-0.34	0
bin	-0.32	0
bin	-0.3	0
bin	-0.28	0
bin	-0.26	0
bin	-0.24	0
bin	-0.22	0
bin	-0.2	0
bin	-0.18	0
bin	-0.16	0
bin	-0.14	0
bin	-0.12	0
bin	-0.1	0
bin	-0.08	0
bin	-0.06	0
bin	-0.04	0
bin	-0.02	0
bin	0	29
bin	0.02	0
bin	0.04	0
bin	0.06	0
bin	0.08	0
bin	0.1	0
bin	0.12	0
bin	0.14	0
bin	0.16	0
bin	0.18	0
bin	0.2	0
bin	0.22	0
bin	0.24	0
bin	0.26	0
bin	0.28	0
bin	0.3	0
bin	0.32	0
bin	0.34	0
bin	0.36	0
bin	0.38	0
bin	0.4	0
bin	0.42	0
bin	0.44	0
bin	0.46	0
bin	0.48	0
bin	0.5	0
scalar LargeNet.switch1.eth[0].macLayer.queue outgoingPackets:count 29
attr recordingmode count
attr source packetPulled
attr title "outgoing packets, count"
attr unit pk
scalar LargeNet.switch1.eth[0].macLayer.queue outgoingPacketLengths:sum 97888
attr interpolationmode none
attr recordingmode sum
attr source packetLength(packetPulled)
attr title "outgoing packet lengths, sum"
attr unit b
statistic LargeNet.switch1.eth[0].macLayer.queue outgoingPacketLengths:histogram
field count 29
field mean 3375.4482758621
field stddev 3684.9581077887
field min 512
field max 8360
field sum 97888
field sqrsum 710625536
attr interpolationmode none
attr recordingmode histogram
attr source packetLength(packetPulled)
attr title "outgoing packet lengths"
attr unit b
bin	-inf	0
bin	0	0
bin	200	0
bin	400	9
bin	600	0
bin	800	10
bin	1000	0
bin	1200	0
bin	1400	0
bin	1600	0
bin	1800	0
bin	2000	0
bin	2200	0
bin	2400	0
bin	2600	0
bin	2800	0
bin	3000	0
bin	3200	0
bin	3400	0
bin	3600	0
bin	3800	0
bin	4000	0
bin	4200	0
bin	4400	0
bin	4600	0
bin	4800	0
bin	5000	0
bin	5200	0
bin	5400	0
bin	5600	0
bin	5800	0
bin	6000	0
bin	6200	0
bin	6400	0
bin	6600	0
bin	6800	0
bin	7000	0
bin	7200	0
bin	7400	0
bin	7600	0
bin	7800	0
bin	8000	0
bin	8200	10
bin	8400	0
bin	8600	0
bin	8800	0
bin	9000	0
bin	9200	0
bin	9400	0
bin	9600	0
bin	9800	0
bin	10000	0
bin	10200	0
bin	10400	0
statistic LargeNet.switch1.eth[0].macLayer.queue flowQueueingTime:histogram
field count 0
field mean -nan
field stddev nan
[...]
statistic LargeNet.switch11.eth[3].phyLayer.outboundEmitter incomingPacketLengths:histogram
field count 5
field mean 576
field stddev 0
field min 576
field max 576
field sum 2880
field sqrsum 1658880
attr interpolationmode none
attr recordingmode histogram
attr source "packetLength(merge(packetPushedIn, packetPulledIn))"
attr title "incoming packet lengths"
attr unit b
bin	-inf	0
bin	575	0
bin	576	5
bin	577	0
scalar LargeNet.switch11.eth[3].phyLayer.outboundEmitter flowIncomingPacketLengths:sum 0
attr interpolationmode none
attr recordingmode sum
attr source "packetLength(demuxFlow(merge(packetPushedIn, packetPulledIn)))"
attr title "flow specific incoming packet lengths, sum"
attr unit b
statistic LargeNet.switch11.eth[3].phyLayer.outboundEmitter flowIncomingPacketLengths:histogram
field count 0
field mean -nan
field stddev nan
field min nan
field max nan
field sum 0
field sqrsum 0
attr interpolationmode none
attr recordingmode histogram
attr source "packetLength(demuxFlow(merge(packetPushedIn, packetPulledIn)))"
attr title "flow specific incoming packet lengths"
attr unit b
bin	-inf	0
bin	0	0
bin	1	0
par LargeNet.switch11.eth[3].phyLayer.transmitter typename "\"inet.protocolelement.transceiver.PacketTransmitter\""
par LargeNet.switch11.eth[3].phyLayer.transmitter displayStringTextFormat "\"processed %p pk (%l)\""
par LargeNet.switch11.eth[3].phyLayer.transmitter clockModule "\"\""
par LargeNet.switch11.eth[3].phyLayer.transmitter datarate this.bitrate
attr unit bps
scalar LargeNet.switch11.eth[3].phyLayer.transmitter propagationTime 5e-08
statistic LargeNet.switch11.eth[3].phyLayer.transmitter utilization:histogram
field count 20
field mean 0.0001152
field stddev 0.00051519006201595
field min 0
field max 0.002304
field sum 0.002304
field sqrsum 5.308416e-06
attr interpolationmode linear
attr recordingmode histogram
attr source "100 * utilization(count(transmissionStarted) - count(transmissionEnded))"
attr title utilization
attr unit %
bin	-inf	0
bin	0	19
bin	5e-05	0
bin	0.0001	0
bin	0.00015	0
bin	0.0002	0
bin	0.00025	0
bin	0.0003	0
bin	0.00035	0
bin	0.0004	0
bin	0.00045	0
bin	0.0005	0
bin	0.00055	0
bin	0.0006	0
bin	0.00065	0
bin	0.0007	0
bin	0.00075	0
bin	0.0008	0
bin	0.00085	0
bin	0.0009	0
bin	0.00095	0
bin	0.001	0
bin	0.00105	0
bin	0.0011	0
bin	0.00115	0
bin	0.0012	0
bin	0.00125	0
bin	0.0013	0
bin	0.00135	0
bin	0.0014	0
bin	0.00145	0
bin	0.0015	0
bin	0.00155	0
bin	0.0016	0
bin	0.00165	0
bin	0.0017	0
bin	0.00175	0
bin	0.0018	0
bin	0.00185	0
bin	0.0019	0
bin	0.00195	0
bin	0.002	0
bin	0.00205	0
bin	0.0021	0
bin	0.00215	0
bin	0.0022	0
bin	0.00225	0
bin	0.0023	1
bin	0.00235	0
bin	0.0024	0
bin	0.00245	0
bin	0.0025	0
bin	0.00255	0
bin	0.0026	0
bin	0.00265	0
bin	0.0027	0
bin	0.00275	0
bin	0.0028	0
bin	0.00285	0
bin	0.0029	0
statistic LargeNet.switch11.eth[3].phyLayer.transmitter transmissionTime:histogram
field count 5
field mean 5.76e-07
field stddev 0
field min 5.76e-07
field max 5.76e-07
field sum 2.88e-06
field sqrsum 1.65888e-12
attr interpolationmode none
attr recordingmode histogram
attr source packetDuration(transmissionEnded)
attr title "transmission time"
attr unit s
bin	-inf	0
bin	0	5
bin	0.01	0
bin	0.02	0
bin	0.03	0
bin	0.04	0
bin	0.05	0
bin	0.06	0
bin	0.07	0
bin	0.08	0
bin	0.09	0
bin	0.1	0
bin	0.11	0
bin	0.12	0
bin	0.13	0
bin	0.14	0
bin	0.15	0
bin	0.16	0
bin	0.17	0
bin	0.18	0
bin	0.19	0
bin	0.2	0
bin	0.21	0
bin	0.22	0
bin	0.23	0
bin	0.24	0
bin	0.25	0
bin	0.26	0
bin	0.27	0
bin	0.28	0
bin	0.29	0
bin	0.3	0
bin	0.31	0
bin	0.32	0
bin	0.33	0
bin	0.34	0
bin	0.35	0
bin	0.36	0
bin	0.37	0
bin	0.38	0
bin	0.39	0
bin	0.4	0
bin	0.41	0
bin	0.42	0
bin	0.43	0
bin	0.44	0
bin	0.45	0
bin	0.46	0
bin	0.47	0
bin	0.48	0
bin	0.49	0
bin	0.5	0
bin	0.51	0
statistic LargeNet.switch11.eth[3].phyLayer.transmitter flowTransmissionTime:histogram
field count 0
field mean -nan
field stddev nan
field min nan
field max nan
field sum 0
field sqrsum 0
attr interpolationmode none
attr recordingmode histogram
attr source packetDuration(demuxFlow(transmissionEnded))
attr title "flow transmission time"
attr unit s
bin	-inf	0
bin	0	0
bin	1	0
par LargeNet.switch11.eth[3].phyLayer.phyHeaderChecker typename "\"inet.physicallayer.wired.ethernet.EthernetPhyHeaderChecker\""
par LargeNet.switch11.eth[3].phyLayer.phyHeaderChecker displayStringTextFormat "\"dropped %d/%p pk (%k/%l)\""
par LargeNet.switch11.eth[3].phyLayer.phyHeaderChecker backpressure false
scalar LargeNet.switch11.eth[3].phyLayer.phyHeaderChecker outgoingPackets:count 17
attr recordingmode count
attr source "merge(packetPushedOut, packetPulledOut)"
attr title "outgoing packets, count"
attr unit pk
scalar LargeNet.switch11.eth[3].phyLayer.phyHeaderChecker outgoingPacketLengths:sum 10528
attr interpolationmode none
attr recordingmode sum
attr source "packetLength(merge(packetPushedOut, packetPulledOut))"
attr title "outgoing packet lengths, sum"
attr unit b
statistic LargeNet.switch11.eth[3].phyLayer.phyHeaderChecker outgoingPacketLengths:histogram
field count 17
field mean 619.29411764706
field stddev 199.38021614051
field min 512
field max 968
field sum 10528
field sqrsum 7155968
attr interpolationmode none
attr recordingmode histogram
attr source "packetLength(merge(packetPushedOut, packetPulledOut))"
attr title "outgoing packet lengths"
attr unit b
bin	-inf	0
bin	390	0
bin	400	0
bin	410	0
bin	420	0
bin	430	0
bin	440	0
bin	450	0
bin	460	0
bin	470	0
bin	480	0
bin	490	0
bin	500	0
bin	510	13
bin	520	0
bin	530	0
bin	540	0
bin	550	0
bin	560	0
bin	570	0
bin	580	0
bin	590	0
bin	600	0
bin	610	0
bin	620	0
bin	630	0
bin	640	0
bin	650	0
bin	660	0
bin	670	0
bin	680	0
bin	690	0
bin	700	0
bin	710	0
bin	720	0
bin	730	0
bin	740	0
bin	750	0
bin	760	0
bin	770	0
bin	780	0
bin	790	0
bin	800	0
bin	810	0
bin	820	0
bin	830	0
bin	840	0
bin	850	0
bin	860	0
bin	870	0
bin	880	0
bin	890	0
bin	900	0
bin	910	0
bin	920	0
bin	930	0
bin	940	0
bin	950	0
bin	960	4
bin	970	0
bin	980	0
bin	990	0
bin	1000	0
bin	1010	0
bin	1020	0
bin	1030	0
bin	1040	0
bin	1050	0
bin	1060	0
bin	1070	0
bin	1080	0
bin	1090	0
scalar LargeNet.switch11.eth[3].phyLayer.phyHeaderChecker flowOutgoingPacketLengths:sum 0
attr interpolationmode none
attr recordingmode sum
attr source "packetLength(demuxFlow(merge(packetPushedOut, packetPulledOut)))"
attr title "flow specific outgoing packet lengths, sum"
attr unit b
statistic LargeNet.switch11.eth[3].phyLayer.phyHeaderChecker flowOutgoingPacketLengths:histogram
field count 0
field mean -nan
field stddev nan
field min nan
field max nan
field sum 0
field sqrsum 0
attr interpolationmode none
attr recordingmode histogram
attr source "packetLength(demuxFlow(merge(packetPushedOut, packetPulledOut)))"
attr title "flow specific outgoing packet lengths"
attr unit b
bin	-inf	0
bin	0	0
bin	1	0
scalar LargeNet.switch11.eth[3].phyLayer.phyHeaderChecker incomingPackets:count 17
attr recordingmode count
attr source "merge(packetPushedIn, packetPulledIn)"
attr title "incoming packets, count"
attr unit pk
scalar LargeNet.switch11.eth[3].phyLayer.phyHeaderChecker incomingPacketLengths:sum 11616
attr interpolationmode none
attr recordingmode sum
attr source "packetLength(merge(packetPushedIn, packetPulledIn))"
attr title "incoming packet lengths, sum"
attr unit b
statistic LargeNet.switch11.eth[3].phyLayer.phyHeaderChecker incomingPacketLengths:histogram
field count 17
field mean 683.29411764706
field stddev 199.38021614051
field min 576
field max 1032
field sum 11616
field sqrsum 8573184
attr interpolationmode none
attr recordingmode histogram
attr source "packetLength(merge(packetPushedIn, packetPulledIn))"
attr title "incoming packet lengths"
attr unit b
bin	-inf	0
bin	460	0
bin	470	0
bin	480	0
bin	490	0
bin	500	0
bin	510	0
bin	520	0
bin	530	0
bin	540	0
bin	550	0
bin	560	0
bin	570	13
bin	580	0
bin	590	0
bin	600	0
bin	610	0
bin	620	0
bin	630	0
bin	640	0
bin	650	0
bin	660	0
bin	670	0
bin	680	0
bin	690	0
bin	700	0
bin	710	0
bin	720	0
bin	730	0
bin	740	0
bin	750	0
bin	760	0
bin	770	0
bin	780	0
bin	790	0
bin	800	0
bin	810	0
bin	820	0
bin	830	0
bin	840	0
bin	850	0
bin	860	0
bin	870	0
bin	880	0
bin	890	0
bin	900	0
bin	910	0
bin	920	0
bin	930	0
bin	940	0
bin	950	0
bin	960	0
bin	970	0
bin	980	0
bin	990	0
bin	1000	0
bin	1010	0
bin	1020	0
bin	1030	4
bin	1040	0
bin	1050	0
bin	1060	0
bin	1070	0
bin	1080	0
bin	1090	0
bin	1100	0
bin	1110	0
bin	1120	0
bin	1130	0
bin	1140	0
bin	1150	0
scalar LargeNet.switch11.eth[3].phyLayer.phyHeaderChecker flowIncomingPacketLengths:sum 0
attr interpolationmode none
attr recordingmode sum
attr source "packetLength(demuxFlow(merge(packetPushedIn, packetPulledIn)))"
attr title "flow specific incoming packet lengths, sum"
attr unit b
statistic LargeNet.switch11.eth[3].phyLayer.phyHeaderChecker flowIncomingPacketLengths:histogram
field count 0
field mean -nan
field stddev nan
field min nan
field max nan
field sum 0
field sqrsum 0
attr interpolationmode none
attr recordingmode histogram
attr source "packetLength(demuxFlow(merge(packetPushedIn, packetPulledIn)))"
attr title "flow specific incoming packet lengths"
attr unit b
bin	-inf	0
bin	0	0
bin	1	0
scalar LargeNet.switch11.eth[3].phyLayer.phyHeaderChecker droppedPackets:count 0
attr recordingmode count
attr source packetDropped
attr title "dropped packets, count"
attr unit pk
scalar LargeNet.switch11.eth[3].phyLayer.phyHeaderChecker droppedPacketLengths:sum 0
attr interpolationmode none
attr recordingmode sum
attr source packetLength(packetDropped)
attr title "dropped packet lengths, sum"
attr unit b
statistic LargeNet.switch11.eth[3].phyLayer.phyHeaderChecker droppedPacketLengths:histogram
field count 0
field mean -nan
field stddev nan
field min nan
field max nan
field sum 0
field sqrsum 0
attr interpolationmode none
attr recordingmode histogram
attr source packetLength(packetDropped)
attr title "dropped packet lengths"
attr unit b
bin	-inf	0
bin	0	0
bin	1	0
scalar LargeNet.switch11.eth[3].phyLayer.phyHeaderChecker flowDroppedPacketLengths:sum 0
attr interpolationmode none
attr recordingmode sum
attr source packetLength(demuxFlow(packetDropped))
attr title "flow specific dropped packet lengths, sum"
attr unit b
statistic LargeNet.switch11.eth[3].phyLayer.phyHeaderChecker flowDroppedPacketLengths:histogram
field count 0
field mean -nan
field stddev nan
field min nan
field max nan
field sum 0
field sqrsum 0
attr interpolationmode none
attr recordingmode histogram
attr source packetLength(demuxFlow(packetDropped))
attr title "flow specific dropped packet lengths"
attr unit b
bin	-inf	0
bin	0	0
bin	1	0
par LargeNet.switch11.eth[3].phyLayer.inboundEmitter typename "\"inet.protocolelement.common.PacketEmitter\""
par LargeNet.switch11.eth[3].phyLayer.inboundEmitter displayStringTextFormat "\"processed %p pk (%l)\""
par LargeNet.switch11.eth[3].phyLayer.inboundEmitter packetFilter "(omnetpp::cValueHolder)holder: \"*\""
par LargeNet.switch11.eth[3].phyLayer.inboundEmitter direction "\"inbound\""
attr enum undefined,inbound,outbound
par LargeNet.switch11.eth[3].phyLayer.inboundEmitter signalName "\"packetReceivedFromLower\""
scalar LargeNet.switch11.eth[3].phyLayer.inboundEmitter outgoingPackets:count 17
attr recordingmode count
attr source "merge(packetPushedOut, packetPulledOut)"
attr title "outgoing packets, count"
attr unit pk
scalar LargeNet.switch11.eth[3].phyLayer.inboundEmitter outgoingPacketLengths:sum 11616
attr interpolationmode none
attr recordingmode sum
attr source "packetLength(merge(packetPushedOut, packetPulledOut))"
attr title "outgoing packet lengths, sum"
attr unit b
statistic LargeNet.switch11.eth[3].phyLayer.inboundEmitter outgoingPacketLengths:histogram
field count 17
field mean 683.29411764706
field stddev 199.38021614051
field min 576
field max 1032
field sum 11616
field sqrsum 8573184
attr interpolationmode none
attr recordingmode histogram
attr source "packetLength(merge(packetPushedOut, packetPulledOut))"
attr title "outgoing packet lengths"
attr unit b
bin	-inf	0
bin	460	0
bin	470	0
bin	480	0
bin	490	0
bin	500	0
bin	510	0
bin	520	0
bin	530	0
bin	540	0
bin	550	0
bin	560	0
bin	570	13
bin	580	0
bin	590	0
bin	600	0
bin	610	0
bin	620	0
bin	630	0
bin	640	0
bin	650	0
bin	660	0
bin	670	0
bin	680	0
bin	690	0
bin	700	0
bin	710	0
bin	720	0
bin	730	0
bin	740	0
bin	750	0
bin	760	0
bin	770	0
bin	780	0
bin	790	0
bin	800	0
bin	810	0
bin	820	0
bin	830	0
bin	840	0
bin	850	0
bin	860	0
bin	870	0
bin	880	0
bin	890	0
bin	900	0
bin	910	0
bin	920	0
bin	930	0
bin	940	0
bin	950	0
bin	960	0
bin	970	0
bin	980	0
bin	990	0
bin	1000	0
bin	1010	0
bin	1020	0
bin	1030	4
bin	1040	0
bin	1050	0
bin	1060	0
bin	1070	0
bin	1080	0
bin	1090	0
bin	1100	0
bin	1110	0
bin	1120	0
bin	1130	0
bin	1140	0
bin	1150	0
scalar LargeNet.switch11.eth[3].phyLayer.inboundEmitter flowOutgoingPacketLengths:sum 0
attr interpolationmode none
attr recordingmode sum
attr source "packetLength(demuxFlow(merge(packetPushedOut, packetPulledOut)))"
attr title "flow specific outgoing packet lengths, sum"
attr unit b
statistic LargeNet.switch11.eth[3].phyLayer.inboundEmitter flowOutgoingPacketLengths:histogram
field count 0
field mean -nan
field stddev nan
field min nan
field max nan
field sum 0
field sqrsum 0
attr interpolationmode none
attr recordingmode histogram
attr source "packetLength(demuxFlow(merge(packetPushedOut, packetPulledOut)))"
attr title "flow specific outgoing packet lengths"
attr unit b
bin	-inf	0
bin	0	0
bin	1	0
scalar LargeNet.switch11.eth[3].phyLayer.inboundEmitter incomingPackets:count 17
attr recordingmode count
attr source "merge(packetPushedIn, packetPulledIn)"
attr title "incoming packets, count"
attr unit pk
scalar LargeNet.switch11.eth[3].phyLayer.inboundEmitter incomingPacketLengths:sum 11616
attr interpolationmode none
attr recordingmode sum
attr source "packetLength(merge(packetPushedIn, packetPulledIn))"
attr title "incoming packet lengths, sum"
attr unit b
statistic LargeNet.switch11.eth[3].phyLayer.inboundEmitter incomingPacketLengths:histogram
field count 17
field mean 683.29411764706
field stddev 199.38021614051
field min 576
field max 1032
field sum 11616
field sqrsum 8573184
attr interpolationmode none
attr recordingmode histogram
attr source "packetLength(merge(packetPushedIn, packetPulledIn))"
attr title "incoming packet lengths"
attr unit b
bin	-inf	0
bin	460	0
bin	470	0
bin	480	0
bin	490	0
bin	500	0
bin	510	0
bin	520	0
bin	530	0
bin	540	0
bin	550	0
bin	560	0
bin	570	13
bin	580	0
bin	590	0
bin	600	0
bin	610	0
bin	620	0
bin	630	0
bin	640	0
bin	650	0
bin	660	0
bin	670	0
bin	680	0
bin	690	0
bin	700	0
bin	710	0
bin	720	0
bin	730	0
bin	740	0
bin	750	0
bin	760	0
bin	770	0
bin	780	0
bin	790	0
bin	800	0
bin	810	0
bin	820	0
bin	830	0
bin	840	0
bin	850	0
bin	860	0
bin	870	0
bin	880	0
bin	890	0
bin	900	0
bin	910	0
bin	920	0
bin	930	0
bin	940	0
bin	950	0
bin	960	0
bin	970	0
bin	980	0
bin	990	0
bin	1000	0
bin	1010	0
bin	1020	0
bin	1030	4
bin	1040	0
bin	1050	0
bin	1060	0
bin	1070	0
bin	1080	0
bin	1090	0
bin	1100	0
bin	1110	0
bin	1120	0
bin	1130	0
bin	1140	0
bin	1150	0
scalar LargeNet.switch11.eth[3].phyLayer.inboundEmitter flowIncomingPacketLengths:sum 0
attr interpolationmode none
attr recordingmode sum
attr source "packetLength(demuxFlow(merge(packetPushedIn, packetPulledIn)))"
attr title "flow specific incoming packet lengths, sum"
attr unit b
statistic LargeNet.switch11.eth[3].phyLayer.inboundEmitter flowIncomingPacketLengths:histogram
field count 0
field mean -nan
field stddev nan
field min nan
field max nan
field sum 0
field sqrsum 0
attr interpolationmode none
attr recordingmode histogram
attr source "packetLength(demuxFlow(merge(packetPushedIn, packetPulledIn)))"
attr title "flow specific incoming packet lengths"
attr unit b
bin	-inf	0
bin	0	0
bin	1	0
par LargeNet.switch11.eth[3].phyLayer.receiver typename "\"inet.protocolelement.transceiver.PacketReceiver\""
par LargeNet.switch11.eth[3].phyLayer.receiver displayStringTextFormat "\"processed %p pk (%l)\""
par LargeNet.switch11.eth[3].phyLayer.receiver datarate 1e+09bps
attr unit bps
statistic LargeNet.switch11.eth[3].phyLayer.receiver receptionTime:histogram
field count 17
field mean 6.8329411764706e-07
field stddev 1.9938021614051e-07
field min 5.76e-07
field max 1.032e-06
field sum 1.1616e-05
field sqrsum 8.573184e-12
attr interpolationmode none
attr recordingmode histogram
attr source packetDuration(receptionEnded)
attr title "reception time"
attr unit s
bin	-inf	0
bin	4.6e-07	0
bin	4.7e-07	0
bin	4.8e-07	0
bin	4.9e-07	0
bin	5e-07	0
bin	5.1e-07	0
bin	5.2e-07	0
bin	5.3e-07	0
bin	5.4e-07	0
bin	5.5e-07	0
bin	5.6e-07	0
bin	5.7e-07	13
bin	5.8e-07	0
bin	5.9e-07	0
bin	6e-07	0
bin	6.1e-07	0
bin	6.2e-07	0
bin	6.3e-07	0
bin	6.4e-07	0
bin	6.5e-07	0
bin	6.6e-07	0
bin	6.7e-07	0
bin	6.8e-07	0
bin	6.9e-07	0
bin	7e-07	0
bin	7.1e-07	0
bin	7.2e-07	0
bin	7.3e-07	0
bin	7.4e-07	0
bin	7.5e-07	0
bin	7.6e-07	0
bin	7.7e-07	0
bin	7.8e-07	0
bin	7.9e-07	0
bin	8e-07	0
bin	8.1e-07	0
bin	8.2e-07	0
bin	8.3e-07	0
bin	8.4e-07	0
bin	8.5e-07	0
bin	8.6e-07	0
bin	8.7e-07	0
bin	8.8e-07	0
bin	8.9e-07	0
bin	9e-07	0
bin	9.1e-07	0
bin	9.2e-07	0
bin	9.3e-07	0
bin	9.4e-07	0
bin	9.5e-07	0
bin	9.6e-07	0
bin	9.7e-07	0
bin	9.8e-07	0
bin	9.9e-07	0
bin	1e-06	0
bin	1.01e-06	0
bin	1.02e-06	0
bin	1.03e-06	4
bin	1.04e-06	0
bin	1.05e-06	0
bin	1.06e-06	0
bin	1.07e-06	0
bin	1.08e-06	0
bin	1.09e-06	0
bin	1.1e-06	0
bin	1.11e-06	0
bin	1.12e-06	0
bin	1.13e-06	0
bin	1.14e-06	0
bin	1.15e-06	0
statistic LargeNet.switch11.eth[3].phyLayer.receiver flowReceptionTime:histogram
field count 0
field mean -nan
field stddev nan
field min nan
field max nan
field sum 0
field sqrsum 0
attr interpolationmode none
attr recordingmode histogram
attr source packetDuration(demuxFlow(receptionEnded))
attr title "flow reception time"
attr unit s
bin	-inf	0
bin	0	0
bin	1	0
par LargeNet.switch11.eth[3].phyLayer typename "\"inet.physicallayer.wired.ethernet.EthernetPhyLayer\""
par LargeNet.switch11.eth[3].phyLayer bitrate this.bitrate
attr unit bps
par LargeNet.switch11.eth[3] typename "\"inet.linklayer.ethernet.LayeredEthernetInterface\""
par LargeNet.switch11.eth[3] displayStringTextFormat "\"%a (%i)\\n%m\""
par LargeNet.switch11.eth[3] recordPcap false
par LargeNet.switch11.eth[3] numPcapRecorders 0
par LargeNet.switch11.eth[3] protocol "\"ethernetmac\""
par LargeNet.switch11.eth[3] broadcast true
par LargeNet.switch11.eth[3] multicast true
par LargeNet.switch11.eth[3] address "\"AAAAAA00000B\""
attr mutable ""
par LargeNet.switch11.eth[3] bitrate 1e+09bps
attr unit bps
par LargeNet.switch11.eth[3] mtu 1500B
attr unit B
par LargeNet.switch11.eth[3] interfaceTableModule "\"LargeNet.switch11.interfaceTable\""
scalar LargeNet.switch11.eth[3] packetDropInterfaceDown:count 0
attr interpolationmode none
attr recordingmode count
attr source packetDropReasonIsInterfaceDown(packetDropped)
attr title "packet drops: interface down, count"
scalar LargeNet.switch11.eth[3] packetDropInterfaceDown:sum(packetBytes) 0
attr interpolationmode none
attr recordingmode sum(packetBytes)
attr source packetDropReasonIsInterfaceDown(packetDropped)
attr title "packet drops: interface down, sum(packetBytes)"
scalar LargeNet.switch11.eth[3] packetDropNoCarrier:count 0
attr interpolationmode none
attr recordingmode count
attr source packetDropReasonIsNoCarrier(packetDropped)
attr title "packet drops: no carrier, count"
scalar LargeNet.switch11.eth[3] packetDropNoCarrier:sum(packetBytes) 0
attr interpolationmode none
attr recordingmode sum(packetBytes)
attr source packetDropReasonIsNoCarrier(packetDropped)
attr title "packet drops: no carrier, sum(packetBytes)"
par LargeNet.switch11 typename "\"inet.node.ethernet.EthernetSwitch\""
par LargeNet.switch11 recordPcap false
par LargeNet.switch11 numPcapRecorders 0
par LargeNet.switch11 numApps 0
par LargeNet.switch11 hasStatus true
par LargeNet.switch11 hasStp true
par LargeNet.switch11 hasGptp false
par LargeNet.switch11 hasCutthroughSwitching false
par LargeNet.switch11 fcsMode "\"declared\""
attr enum declared,computed
par LargeNet.switch11 spanningTreeProtocol "\"Rstp\""
par LargeNet.switch11 numEthInterfaces 0
par LargeNet typename "\"inet.examples.ieee8021d.LargeNet\""

