file 9897108 1711335594                                         
version 3
run config3-0-20240325-03:58:51-4987
attr configname config3
attr datetime 20240325-03:58:51
attr datetimef 20240325-035851
attr experiment config3
attr inifile omnetpp.ini
attr iterationvars ""
attr iterationvarsd ""
attr iterationvarsf ""
attr measurement ""
attr network TrainTopology
attr processid 4987
attr repetition 0
attr replication #0
attr resultdir results
attr runnumber 0
attr seedset 0
config image-path ../../inet4.5/images:../../simu5G/images
config extends config1
config *.scenarioManager.script "xmldoc(\"scenario.xml\")"
config *.*Client*.numApps 1
config *.TCUClient*.app[*].typename UdpSourceApp
config *.TCUClient*.app[0].display-name besteffort
config *.TCUClient*.app[*].io.destAddress "\"server\""
config *.TCUClient*.app[0].io.destPort 1000
config *.TCUClient*.app[0].io.localPort 1000
config *.TCUClient*.app[0].source.packetLength 50B
config *.TCUClient*.app[0].source.productionInterval 10ms
config *.TCUClient*.app[*].source.initialProductionOffset 20ms
config *.BCUClient*.app[*].typename UdpSourceApp
config *.BCUClient*.app[0].display-name video
config *.BCUClient*.app[*].io.destAddress "\"server\""
config *.BCUClient*.app[0].io.destPort 1001
config *.BCUClient*.app[0].io.localPort 1000
config *.BCUClient*.app[0].source.packetLength 46B
config *.BCUClient*.app[0].source.productionInterval 10ms
config *.BCUClient*.app[*].source.initialProductionOffset 20ms
config *.BCClient*.app[*].typename UdpSourceApp
config *.BCClient*.app[0].display-name besteffort
config *.BCClient*.app[*].io.destAddress "\"server\""
config *.BCClient*.app[0].io.destPort 1000
config *.BCClient*.app[0].io.localPort 1000
config *.BCClient*.app[0].source.packetLength 36B
config *.BCClient*.app[0].source.productionInterval 200ms
config *.BCClient*.app[*].source.initialProductionOffset 15ms
config *.DCUClient*.app[*].typename UdpSourceApp
config *.DCUClient*.app[0].display-name besteffort
config *.DCUClient*.app[*].io.destAddress "\"server\""
config *.DCUClient*.app[0].io.destPort 1000
config *.DCUClient*.app[0].io.localPort 1000
config *.DCUClient*.app[0].source.packetLength 42B
config *.DCUClient*.app[0].source.productionInterval 500ms
config *.DCUClient*.app[*].source.initialProductionOffset 0ms
config *.HVACClient*.app[*].typename UdpSourceApp
config *.HVACClient*.app[0].display-name besteffort
config *.HVACClient*.app[*].io.destAddress "\"server\""
config *.HVACClient*.app[0].io.destPort 1000
config *.HVACClient*.app[0].io.localPort 1000
config *.HVACClient*.app[0].source.packetLength 36B
config *.HVACClient*.app[0].source.productionInterval 200ms
config *.HVACClient*.app[*].source.initialProductionOffset 10ms
config *.PISClient*.app[*].typename UdpSourceApp
config *.PISClient*.app[0].display-name besteffort
config *.PISClient*.app[*].io.destAddress "\"server\""
config *.PISClient*.app[0].io.destPort 1000
config *.PISClient*.app[0].io.localPort 1000
config *.PISClient*.app[0].source.packetLength 300B
config *.PISClient*.app[0].source.productionInterval 500ms
config *.PISClient*.app[*].source.initialProductionOffset 0ms
config *.server.numApps 2
config *.server.app[0..1].typename UdpSinkApp
config *.server.app[0].display-name besteffort
config *.server.app[1].display-name video
config *.server.app[0].io.localPort 1000
config *.server.app[1].io.localPort 1001
config network TrainTopology
config *.switch1.macTable.forwardingTable "[{address:\"0A-AA-00-00-00-01\", interface:\"eth1\"}]"
config *.switch2.macTable.forwardingTable "[{address:\"0A-AA-00-00-00-01\", interface:\"eth1\"}]"
config *.switch3.macTable.forwardingTable "[{address:\"0A-AA-00-00-00-01\", interface:\"eth1\"}]"
config *.switch4.macTable.forwardingTable "[{address:\"0A-AA-00-00-00-01\", interface:\"eth1\"}]"
config *.switch5.macTable.forwardingTable "[{address:\"0A-AA-00-00-00-01\", interface:\"eth2\"}]"
config *.switch6.macTable.forwardingTable "[{address:\"0A-AA-00-00-00-01\", interface:\"eth2\"}]"
config *.*.dstt.destAddress "\"server\""
config *.*Ue[0..1].masterId 0
config *.*Ue[0..1].nrMacCellId 1
config *.*Ue[0..1].nrMasterId 1
config *.*Ue[2..3].masterId 0
config *.*Ue[2..3].nrMacCellId 1
config *.*Ue[2..3].nrMasterId 2
config *.*Ue[4..5].masterId 0
config *.*Ue[4..5].nrMacCellId 1
config *.*Ue[4..5].nrMasterId 3
config *.*Ue[6..7].masterId 0
config *.*Ue[6..7].nrMacCellId 1
config *.*Ue[6..7].nrMasterId 4
config *.carrierAggregation.numComponentCarriers 1
config *.carrierAggregation.componentCarrier[0].numerologyIndex 0
config *.carrierAggregation.componentCarrier[0].carrierFrequency 2GHz
config *.carrierAggregation.componentCarrier[0].numBands 25
config *.gnb*.cellularNic.numCarriers 1
config *.gnb*.cellularNic.channelModel[0].componentCarrierIndex 0
config *.*Ue[*].cellularNic.numCarriers 1
config *.*Ue[*].cellularNic.nrChannelModel[0].componentCarrierIndex 0
config **.hasStatus true

vector 0 TrainTopology.server.eth[0].phyLayer.interFrameGapInserter interpacketGap:vector ETV
attr interpolationmode sample-hold
attr recordingmode vector
attr source "count(interpacketGapStarted) - count(interpacketGapEnded)"
attr title "interpacket gap state"
attr type int
vector 1 TrainTopology.server.eth[0].phyLayer.transmitter transmitting:vector ETV
attr interpolationmode sample-hold
attr recordingmode vector
attr source "count(transmissionStarted) - count(transmissionEnded)"
attr title "transmitting state"
attr type int
vector 2 TrainTopology.server.eth[1].phyLayer.interFrameGapInserter interpacketGap:vector ETV
attr interpolationmode sample-hold
attr recordingmode vector
attr source "count(interpacketGapStarted) - count(interpacketGapEnded)"
attr title "interpacket gap state"
attr type int
vector 3 TrainTopology.server.eth[1].phyLayer.transmitter transmitting:vector ETV
attr interpolationmode sample-hold
attr recordingmode vector
attr source "count(transmissionStarted) - count(transmissionEnded)"
attr title "transmitting state"
attr type int
vector 4 TrainTopology.server.udp passedUpPk:vector(count) ETV
attr interpolationmode none
attr recordingmode vector(count)
attr source packetSentToUpper
attr title "packets passed up, count"
vector 5 TrainTopology.server.udp droppedPkWrongPort:vector(count) ETV
attr interpolationmode none
attr recordingmode vector(count)
attr source packetDropReasonIsNoPortFound(packetDropped)
attr title "packets dropped (wrong port), count"
vector 6 TrainTopology.server.udp droppedPkBadChecksum:vector(count) ETV
attr interpolationmode none
attr recordingmode vector(count)
attr source packetDropReasonIsIncorrectlyReceived(packetDropped)
attr title "packets dropped (checksum error), count"
vector 7 TrainTopology.switch1.eth[0].phyLayer.interFrameGapInserter interpacketGap:vector ETV
attr interpolationmode sample-hold
attr recordingmode vector
attr source "count(interpacketGapStarted) - count(interpacketGapEnded)"
attr title "interpacket gap state"
attr type int
vector 8 TrainTopology.switch1.eth[0].phyLayer.transmitter transmitting:vector ETV
attr interpolationmode sample-hold
attr recordingmode vector
attr source "count(transmissionStarted) - count(transmissionEnded)"
attr title "transmitting state"
attr type int
vector 9 TrainTopology.switch1.eth[1].phyLayer.interFrameGapInserter interpacketGap:vector ETV
attr interpolationmode sample-hold
attr recordingmode vector
attr source "count(interpacketGapStarted) - count(interpacketGapEnded)"
attr title "interpacket gap state"
attr type int
vector 10 TrainTopology.switch1.eth[1].phyLayer.transmitter transmitting:vector ETV
attr interpolationmode sample-hold
attr recordingmode vector
attr source "count(transmissionStarted) - count(transmissionEnded)"
attr title "transmitting state"
attr type int
vector 11 TrainTopology.switch1.eth[2].phyLayer.interFrameGapInserter interpacketGap:vector ETV
attr interpolationmode sample-hold
attr recordingmode vector
attr source "count(interpacketGapStarted) - count(interpacketGapEnded)"
attr title "interpacket gap state"
attr type int
vector 12 TrainTopology.switch1.eth[2].phyLayer.transmitter transmitting:vector ETV
attr interpolationmode sample-hold
attr recordingmode vector
attr source "count(transmissionStarted) - count(transmissionEnded)"
attr title "transmitting state"
attr type int
vector 13 TrainTopology.switch2.eth[0].phyLayer.interFrameGapInserter interpacketGap:vector ETV
attr interpolationmode sample-hold
attr recordingmode vector
attr source "count(interpacketGapStarted) - count(interpacketGapEnded)"
attr title "interpacket gap state"
attr type int
vector 14 TrainTopology.switch2.eth[0].phyLayer.transmitter transmitting:vector ETV
attr interpolationmode sample-hold
attr recordingmode vector
attr source "count(transmissionStarted) - count(transmissionEnded)"
attr title "transmitting state"
attr type int
vector 15 TrainTopology.switch2.eth[1].phyLayer.interFrameGapInserter interpacketGap:vector ETV
attr interpolationmode sample-hold
attr recordingmode vector
attr source "count(interpacketGapStarted) - count(interpacketGapEnded)"
attr title "interpacket gap state"
attr type int
vector 16 TrainTopology.switch2.eth[1].phyLayer.transmitter transmitting:vector ETV
attr interpolationmode sample-hold
attr recordingmode vector
attr source "count(transmissionStarted) - count(transmissionEnded)"
attr title "transmitting state"
attr type int
vector 17 TrainTopology.switch2.eth[2].phyLayer.interFrameGapInserter interpacketGap:vector ETV
attr interpolationmode sample-hold
attr recordingmode vector
attr source "count(interpacketGapStarted) - count(interpacketGapEnded)"
attr title "interpacket gap state"
attr type int
vector 18 TrainTopology.switch2.eth[2].phyLayer.transmitter transmitting:vector ETV
attr interpolationmode sample-hold
attr recordingmode vector
attr source "count(transmissionStarted) - count(transmissionEnded)"
attr title "transmitting state"
attr type int
vector 19 TrainTopology.switch2.eth[3].phyLayer.interFrameGapInserter interpacketGap:vector ETV
attr interpolationmode sample-hold
attr recordingmode vector
attr source "count(interpacketGapStarted) - count(interpacketGapEnded)"
attr title "interpacket gap state"
attr type int
vector 20 TrainTopology.switch2.eth[3].phyLayer.transmitter transmitting:vector ETV
attr interpolationmode sample-hold
attr recordingmode vector
attr source "count(transmissionStarted) - count(transmissionEnded)"
attr title "transmitting state"
attr type int
vector 21 TrainTopology.switch3.eth[0].phyLayer.interFrameGapInserter interpacketGap:vector ETV
attr interpolationmode sample-hold
attr recordingmode vector
attr source "count(interpacketGapStarted) - count(interpacketGapEnded)"
attr title "interpacket gap state"
attr type int
vector 22 TrainTopology.switch3.eth[0].phyLayer.transmitter transmitting:vector ETV
attr interpolationmode sample-hold
attr recordingmode vector
attr source "count(transmissionStarted) - count(transmissionEnded)"
attr title "transmitting state"
attr type int
vector 23 TrainTopology.switch3.eth[1].phyLayer.interFrameGapInserter interpacketGap:vector ETV
attr interpolationmode sample-hold
attr recordingmode vector
attr source "count(interpacketGapStarted) - count(interpacketGapEnded)"
attr title "interpacket gap state"
attr type int
vector 24 TrainTopology.switch3.eth[1].phyLayer.transmitter transmitting:vector ETV
attr interpolationmode sample-hold
attr recordingmode vector
attr source "count(transmissionStarted) - count(transmissionEnded)"
attr title "transmitting state"
attr type int
vector 25 TrainTopology.switch3.eth[2].phyLayer.interFrameGapInserter interpacketGap:vector ETV
attr interpolationmode sample-hold
attr recordingmode vector
attr source "count(interpacketGapStarted) - count(interpacketGapEnded)"
attr title "interpacket gap state"
attr type int
vector 26 TrainTopology.switch3.eth[2].phyLayer.transmitter transmitting:vector ETV
attr interpolationmode sample-hold
attr recordingmode vector
attr source "count(transmissionStarted) - count(transmissionEnded)"
attr title "transmitting state"
attr type int
vector 27 TrainTopology.switch3.eth[3].phyLayer.interFrameGapInserter interpacketGap:vector ETV
attr interpolationmode sample-hold
attr recordingmode vector
attr source "count(interpacketGapStarted) - count(interpacketGapEnded)"
attr title "interpacket gap state"
attr type int
vector 28 TrainTopology.switch3.eth[3].phyLayer.transmitter transmitting:vector ETV
attr interpolationmode sample-hold
attr recordingmode vector
attr source "count(transmissionStarted) - count(transmissionEnded)"
attr title "transmitting state"
attr type int
vector 29 TrainTopology.switch4.eth[0].phyLayer.interFrameGapInserter interpacketGap:vector ETV
attr interpolationmode sample-hold
attr recordingmode vector
attr source "count(interpacketGapStarted) - count(interpacketGapEnded)"
attr title "interpacket gap state"
attr type int
vector 30 TrainTopology.switch4.eth[0].phyLayer.transmitter transmitting:vector ETV
attr interpolationmode sample-hold
attr recordingmode vector
attr source "count(transmissionStarted) - count(transmissionEnded)"
attr title "transmitting state"
attr type int
vector 31 TrainTopology.switch4.eth[1].phyLayer.interFrameGapInserter interpacketGap:vector ETV
attr interpolationmode sample-hold
attr recordingmode vector
attr source "count(interpacketGapStarted) - count(interpacketGapEnded)"
attr title "interpacket gap state"
attr type int
vector 32 TrainTopology.switch4.eth[1].phyLayer.transmitter transmitting:vector ETV
attr interpolationmode sample-hold
attr recordingmode vector
attr source "count(transmissionStarted) - count(transmissionEnded)"
attr title "transmitting state"
attr type int
vector 33 TrainTopology.switch4.eth[2].phyLayer.interFrameGapInserter interpacketGap:vector ETV
attr interpolationmode sample-hold
attr recordingmode vector
attr source "count(interpacketGapStarted) - count(interpacketGapEnded)"
attr title "interpacket gap state"
attr type int
vector 34 TrainTopology.switch4.eth[2].phyLayer.transmitter transmitting:vector ETV
attr interpolationmode sample-hold
attr recordingmode vector
attr source "count(transmissionStarted) - count(transmissionEnded)"
attr title "transmitting state"
attr type int
vector 35 TrainTopology.switch5.eth[0].phyLayer.interFrameGapInserter interpacketGap:vector ETV
attr interpolationmode sample-hold
attr recordingmode vector
attr source "count(interpacketGapStarted) - count(interpacketGapEnded)"
attr title "interpacket gap state"
attr type int
vector 36 TrainTopology.switch5.eth[0].phyLayer.transmitter transmitting:vector ETV
attr interpolationmode sample-hold
attr recordingmode vector
attr source "count(transmissionStarted) - count(transmissionEnded)"
attr title "transmitting state"
attr type int
vector 37 TrainTopology.switch5.eth[1].phyLayer.interFrameGapInserter interpacketGap:vector ETV
attr interpolationmode sample-hold
attr recordingmode vector
attr source "count(interpacketGapStarted) - count(interpacketGapEnded)"
attr title "interpacket gap state"
attr type int
vector 38 TrainTopology.switch5.eth[1].phyLayer.transmitter transmitting:vector ETV
attr interpolationmode sample-hold
attr recordingmode vector
attr source "count(transmissionStarted) - count(transmissionEnded)"
attr title "transmitting state"
attr type int
vector 39 TrainTopology.switch5.eth[2].phyLayer.interFrameGapInserter interpacketGap:vector ETV
attr interpolationmode sample-hold
attr recordingmode vector
attr source "count(interpacketGapStarted) - count(interpacketGapEnded)"
attr title "interpacket gap state"
attr type int
vector 40 TrainTopology.switch5.eth[2].phyLayer.transmitter transmitting:vector ETV
attr interpolationmode sample-hold
attr recordingmode vector
attr source "count(transmissionStarted) - count(transmissionEnded)"
attr title "transmitting state"
attr type int
vector 41 TrainTopology.switch6.eth[0].phyLayer.interFrameGapInserter interpacketGap:vector ETV
attr interpolationmode sample-hold
attr recordingmode vector
attr source "count(interpacketGapStarted) - count(interpacketGapEnded)"
attr title "interpacket gap state"
attr type int
vector 42 TrainTopology.switch6.eth[0].phyLayer.transmitter transmitting:vector ETV
attr interpolationmode sample-hold
attr recordingmode vector
attr source "count(transmissionStarted) - count(transmissionEnded)"
attr title "transmitting state"
attr type int
vector 43 TrainTopology.switch6.eth[1].phyLayer.interFrameGapInserter interpacketGap:vector ETV
attr interpolationmode sample-hold
attr recordingmode vector
attr source "count(interpacketGapStarted) - count(interpacketGapEnded)"
attr title "interpacket gap state"
attr type int
vector 44 TrainTopology.switch6.eth[1].phyLayer.transmitter transmitting:vector ETV
attr interpolationmode sample-hold
attr recordingmode vector
attr source "count(transmissionStarted) - count(transmissionEnded)"
attr title "transmitting state"
attr type int
vector 45 TrainTopology.switch6.eth[2].phyLayer.interFrameGapInserter interpacketGap:vector ETV
attr interpolationmode sample-hold
attr recordingmode vector
attr source "count(interpacketGapStarted) - count(interpacketGapEnded)"
attr title "interpacket gap state"
attr type int
vector 46 TrainTopology.switch6.eth[2].phyLayer.transmitter transmitting:vector ETV
attr interpolationmode sample-hold
attr recordingmode vector
attr source "count(transmissionStarted) - count(transmissionEnded)"
attr title "transmitting state"
attr type int
vector 47 TrainTopology.upf1.ppp[0].ppp transmissionState:vector ETV
attr interpolationmode sample-hold
attr recordingmode vector
attr source transmissionStateChanged
attr title "tx state"
vector 48 TrainTopology.upf1.udp passedUpPk:vector(count) ETV
attr interpolationmode none
attr recordingmode vector(count)
attr source packetSentToUpper
attr title "packets passed up, count"
vector 49 TrainTopology.upf1.udp droppedPkWrongPort:vector(count) ETV
attr interpolationmode none
attr recordingmode vector(count)
attr source packetDropReasonIsNoPortFound(packetDropped)
attr title "packets dropped (wrong port), count"
vector 50 TrainTopology.upf1.udp droppedPkBadChecksum:vector(count) ETV
attr interpolationmode none
attr recordingmode vector(count)
attr source packetDropReasonIsIncorrectlyReceived(packetDropped)
attr title "packets dropped (checksum error), count"
vector 51 TrainTopology.upf1.ethInterface.phyLayer.interFrameGapInserter interpacketGap:vector ETV
attr interpolationmode sample-hold
attr recordingmode vector
attr source "count(interpacketGapStarted) - count(interpacketGapEnded)"
attr title "interpacket gap state"
attr type int
vector 52 TrainTopology.upf1.ethInterface.phyLayer.transmitter transmitting:vector ETV
attr interpolationmode sample-hold
attr recordingmode vector
attr source "count(transmissionStarted) - count(transmissionEnded)"
attr title "transmitting state"
attr type int
vector 53 TrainTopology.upf2.ppp[0].ppp transmissionState:vector ETV
attr interpolationmode sample-hold
attr recordingmode vector
attr source transmissionStateChanged
attr title "tx state"
vector 54 TrainTopology.upf2.udp passedUpPk:vector(count) ETV
attr interpolationmode none
attr recordingmode vector(count)
attr source packetSentToUpper
attr title "packets passed up, count"
vector 55 TrainTopology.upf2.udp droppedPkWrongPort:vector(count) ETV
attr interpolationmode none
attr recordingmode vector(count)
attr source packetDropReasonIsNoPortFound(packetDropped)
attr title "packets dropped (wrong port), count"
vector 56 TrainTopology.upf2.udp droppedPkBadChecksum:vector(count) ETV
attr interpolationmode none
attr recordingmode vector(count)
attr source packetDropReasonIsIncorrectlyReceived(packetDropped)
attr title "packets dropped (checksum error), count"
vector 57 TrainTopology.upf2.ethInterface.phyLayer.interFrameGapInserter interpacketGap:vector ETV
attr interpolationmode sample-hold
attr recordingmode vector
attr source "count(interpacketGapStarted) - count(interpacketGapEnded)"
attr title "interpacket gap state"
attr type int
vector 58 TrainTopology.upf2.ethInterface.phyLayer.transmitter transmitting:vector ETV
attr interpolationmode sample-hold
attr recordingmode vector
attr source "count(transmissionStarted) - count(transmissionEnded)"
attr title "transmitting state"
attr type int
vector 59 TrainTopology.upf3.ppp[0].ppp transmissionState:vector ETV
attr interpolationmode sample-hold
attr recordingmode vector
attr source transmissionStateChanged
attr title "tx state"
vector 60 TrainTopology.upf3.udp passedUpPk:vector(count) ETV
attr interpolationmode none
attr recordingmode vector(count)
attr source packetSentToUpper
attr title "packets passed up, count"
vector 61 TrainTopology.upf3.udp droppedPkWrongPort:vector(count) ETV
attr interpolationmode none
attr recordingmode vector(count)
attr source packetDropReasonIsNoPortFound(packetDropped)
attr title "packets dropped (wrong port), count"
vector 62 TrainTopology.upf3.udp droppedPkBadChecksum:vector(count) ETV
attr interpolationmode none
attr recordingmode vector(count)
attr source packetDropReasonIsIncorrectlyReceived(packetDropped)
attr title "packets dropped (checksum error), count"
vector 63 TrainTopology.upf3.ethInterface.phyLayer.interFrameGapInserter interpacketGap:vector ETV
attr interpolationmode sample-hold
attr recordingmode vector
attr source "count(interpacketGapStarted) - count(interpacketGapEnded)"
attr title "interpacket gap state"
attr type int
vector 64 TrainTopology.upf3.ethInterface.phyLayer.transmitter transmitting:vector ETV
attr interpolationmode sample-hold
attr recordingmode vector
attr source "count(transmissionStarted) - count(transmissionEnded)"
attr title "transmitting state"
attr type int
vector 65 TrainTopology.upf4.ppp[0].ppp transmissionState:vector ETV
attr interpolationmode sample-hold
attr recordingmode vector
attr source transmissionStateChanged
attr title "tx state"
vector 66 TrainTopology.upf4.udp passedUpPk:vector(count) ETV
attr interpolationmode none
attr recordingmode vector(count)
attr source packetSentToUpper
attr title "packets passed up, count"
vector 67 TrainTopology.upf4.udp droppedPkWrongPort:vector(count) ETV
attr interpolationmode none
attr recordingmode vector(count)
attr source packetDropReasonIsNoPortFound(packetDropped)
attr title "packets dropped (wrong port), count"
vector 68 TrainTopology.upf4.udp droppedPkBadChecksum:vector(count) ETV
attr interpolationmode none
attr recordingmode vector(count)
attr source packetDropReasonIsIncorrectlyReceived(packetDropped)
attr title "packets dropped (checksum error), count"
vector 69 TrainTopology.upf4.ethInterface.phyLayer.interFrameGapInserter interpacketGap:vector ETV
attr interpolationmode sample-hold
attr recordingmode vector
attr source "count(interpacketGapStarted) - count(interpacketGapEnded)"
attr title "interpacket gap state"
attr type int
vector 70 TrainTopology.upf4.ethInterface.phyLayer.transmitter transmitting:vector ETV
attr interpolationmode sample-hold
attr recordingmode vector
attr source "count(transmissionStarted) - count(transmissionEnded)"
attr title "transmitting state"
attr type int
vector 71 TrainTopology.gnb1.pppIf.ppp transmissionState:vector ETV
attr interpolationmode sample-hold
attr recordingmode vector
attr source transmissionStateChanged
attr title "tx state"
vector 72 TrainTopology.gnb1.pppMEHostIf.ppp transmissionState:vector ETV
attr interpolationmode sample-hold
attr recordingmode vector
attr source transmissionStateChanged
attr title "tx state"
vector 73 TrainTopology.gnb1.udp passedUpPk:vector(count) ETV
attr interpolationmode none
attr recordingmode vector(count)
attr source packetSentToUpper
attr title "packets passed up, count"
vector 74 TrainTopology.gnb1.udp droppedPkWrongPort:vector(count) ETV
attr interpolationmode none
attr recordingmode vector(count)
attr source packetDropReasonIsNoPortFound(packetDropped)
attr title "packets dropped (wrong port), count"
vector 75 TrainTopology.gnb1.udp droppedPkBadChecksum:vector(count) ETV
attr interpolationmode none
attr recordingmode vector(count)
attr source packetDropReasonIsIncorrectlyReceived(packetDropped)
attr title "packets dropped (checksum error), count"
vector 76 TrainTopology.gnb2.pppIf.ppp transmissionState:vector ETV
attr interpolationmode sample-hold
attr recordingmode vector
attr source transmissionStateChanged
attr title "tx state"
vector 77 TrainTopology.gnb2.pppMEHostIf.ppp transmissionState:vector ETV
attr interpolationmode sample-hold
attr recordingmode vector
attr source transmissionStateChanged
attr title "tx state"
vector 78 TrainTopology.gnb2.udp passedUpPk:vector(count) ETV
attr interpolationmode none
attr recordingmode vector(count)
attr source packetSentToUpper
attr title "packets passed up, count"
vector 79 TrainTopology.gnb2.udp droppedPkWrongPort:vector(count) ETV
attr interpolationmode none
attr recordingmode vector(count)
attr source packetDropReasonIsNoPortFound(packetDropped)
attr title "packets dropped (wrong port), count"
vector 80 TrainTopology.gnb2.udp droppedPkBadChecksum:vector(count) ETV
attr interpolationmode none
attr recordingmode vector(count)
attr source packetDropReasonIsIncorrectlyReceived(packetDropped)
attr title "packets dropped (checksum error), count"
vector 81 TrainTopology.gnb3.pppIf.ppp transmissionState:vector ETV
attr interpolationmode sample-hold
attr recordingmode vector
attr source transmissionStateChanged
attr title "tx state"
vector 82 TrainTopology.gnb3.pppMEHostIf.ppp transmissionState:vector ETV
attr interpolationmode sample-hold
attr recordingmode vector
attr source transmissionStateChanged
attr title "tx state"
vector 83 TrainTopology.gnb3.udp passedUpPk:vector(count) ETV
attr interpolationmode none
attr recordingmode vector(count)
attr source packetSentToUpper
attr title "packets passed up, count"
vector 84 TrainTopology.gnb3.udp droppedPkWrongPort:vector(count) ETV
attr interpolationmode none
attr recordingmode vector(count)
attr source packetDropReasonIsNoPortFound(packetDropped)
attr title "packets dropped (wrong port), count"
vector 85 TrainTopology.gnb3.udp droppedPkBadChecksum:vector(count) ETV
attr interpolationmode none
attr recordingmode vector(count)
attr source packetDropReasonIsIncorrectlyReceived(packetDropped)
attr title "packets dropped (checksum error), count"
vector 86 TrainTopology.gnb4.pppIf.ppp transmissionState:vector ETV
attr interpolationmode sample-hold
attr recordingmode vector
attr source transmissionStateChanged
attr title "tx state"
vector 87 TrainTopology.gnb4.pppMEHostIf.ppp transmissionState:vector ETV
attr interpolationmode sample-hold
attr recordingmode vector
attr source transmissionStateChanged
attr title "tx state"
vector 88 TrainTopology.gnb4.udp passedUpPk:vector(count) ETV
attr interpolationmode none
attr recordingmode vector(count)
attr source packetSentToUpper
attr title "packets passed up, count"
vector 89 TrainTopology.gnb4.udp droppedPkWrongPort:vector(count) ETV
attr interpolationmode none
attr recordingmode vector(count)
attr source packetDropReasonIsNoPortFound(packetDropped)
attr title "packets dropped (wrong port), count"
vector 90 TrainTopology.gnb4.udp droppedPkBadChecksum:vector(count) ETV
attr interpolationmode none
attr recordingmode vector(count)
attr source packetDropReasonIsIncorrectlyReceived(packetDropped)
attr title "packets dropped (checksum error), count"
vector 91 TrainTopology.HVACClient[0].eth[0].phyLayer.interFrameGapInserter interpacketGap:vector ETV
attr interpolationmode sample-hold
attr recordingmode vector
attr source "count(interpacketGapStarted) - count(interpacketGapEnded)"
attr title "interpacket gap state"
attr type int
vector 92 TrainTopology.HVACClient[0].eth[0].phyLayer.transmitter transmitting:vector ETV
attr interpolationmode sample-hold
attr recordingmode vector
attr source "count(transmissionStarted) - count(transmissionEnded)"
attr title "transmitting state"
attr type int
vector 93 TrainTopology.HVACClient[0].udp passedUpPk:vector(count) ETV
attr interpolationmode none
attr recordingmode vector(count)
attr source packetSentToUpper
attr title "packets passed up, count"
vector 94 TrainTopology.HVACClient[0].udp droppedPkWrongPort:vector(count) ETV
attr interpolationmode none
attr recordingmode vector(count)
attr source packetDropReasonIsNoPortFound(packetDropped)
attr title "packets dropped (wrong port), count"
vector 95 TrainTopology.HVACClient[0].udp droppedPkBadChecksum:vector(count) ETV
attr interpolationmode none
attr recordingmode vector(count)
attr source packetDropReasonIsIncorrectlyReceived(packetDropped)
attr title "packets dropped (checksum error), count"
vector 96 TrainTopology.HVACClient[1].eth[0].phyLayer.interFrameGapInserter interpacketGap:vector ETV
attr interpolationmode sample-hold
attr recordingmode vector
attr source "count(interpacketGapStarted) - count(interpacketGapEnded)"
attr title "interpacket gap state"
attr type int
vector 97 TrainTopology.HVACClient[1].eth[0].phyLayer.transmitter transmitting:vector ETV
attr interpolationmode sample-hold
attr recordingmode vector
attr source "count(transmissionStarted) - count(transmissionEnded)"
attr title "transmitting state"
attr type int
vector 98 TrainTopology.HVACClient[1].udp passedUpPk:vector(count) ETV
attr interpolationmode none
attr recordingmode vector(count)
attr source packetSentToUpper
attr title "packets passed up, count"
vector 99 TrainTopology.HVACClient[1].udp droppedPkWrongPort:vector(count) ETV
attr interpolationmode none
attr recordingmode vector(count)
attr source packetDropReasonIsNoPortFound(packetDropped)
attr title "packets dropped (wrong port), count"
vector 100 TrainTopology.HVACClient[1].udp droppedPkBadChecksum:vector(count) ETV
attr interpolationmode none
attr recordingmode vector(count)
attr source packetDropReasonIsIncorrectlyReceived(packetDropped)
attr title "packets dropped (checksum error), count"
vector 101 TrainTopology.HVACClient[2].eth[0].phyLayer.interFrameGapInserter interpacketGap:vector ETV
attr interpolationmode sample-hold
attr recordingmode vector
attr source "count(interpacketGapStarted) - count(interpacketGapEnded)"
attr title "interpacket gap state"
attr type int
vector 102 TrainTopology.HVACClient[2].eth[0].phyLayer.transmitter transmitting:vector ETV
attr interpolationmode sample-hold
attr recordingmode vector
attr source "count(transmissionStarted) - count(transmissionEnded)"
attr title "transmitting state"
attr type int
vector 103 TrainTopology.HVACClient[2].udp passedUpPk:vector(count) ETV
attr interpolationmode none
attr recordingmode vector(count)
attr source packetSentToUpper
attr title "packets passed up, count"
vector 104 TrainTopology.HVACClient[2].udp droppedPkWrongPort:vector(count) ETV
attr interpolationmode none
attr recordingmode vector(count)
attr source packetDropReasonIsNoPortFound(packetDropped)
attr title "packets dropped (wrong port), count"
vector 105 TrainTopology.HVACClient[2].udp droppedPkBadChecksum:vector(count) ETV
attr interpolationmode none
attr recordingmode vector(count)
attr source packetDropReasonIsIncorrectlyReceived(packetDropped)
attr title "packets dropped (checksum error), count"
vector 106 TrainTopology.HVACClient[3].eth[0].phyLayer.interFrameGapInserter interpacketGap:vector ETV
attr interpolationmode sample-hold
attr recordingmode vector
attr source "count(interpacketGapStarted) - count(interpacketGapEnded)"
attr title "interpacket gap state"
attr type int
vector 107 TrainTopology.HVACClient[3].eth[0].phyLayer.transmitter transmitting:vector ETV
attr interpolationmode sample-hold
attr recordingmode vector
attr source "count(transmissionStarted) - count(transmissionEnded)"
attr title "transmitting state"
attr type int
vector 108 TrainTopology.HVACClient[3].udp passedUpPk:vector(count) ETV
attr interpolationmode none
attr recordingmode vector(count)
attr source packetSentToUpper
attr title "packets passed up, count"
vector 109 TrainTopology.HVACClient[3].udp droppedPkWrongPort:vector(count) ETV
attr interpolationmode none
attr recordingmode vector(count)
attr source packetDropReasonIsNoPortFound(packetDropped)
attr title "packets dropped (wrong port), count"
vector 110 TrainTopology.HVACClient[3].udp droppedPkBadChecksum:vector(count) ETV
attr interpolationmode none
attr recordingmode vector(count)
attr source packetDropReasonIsIncorrectlyReceived(packetDropped)
attr title "packets dropped (checksum error), count"
vector 111 TrainTopology.HVACClient[4].eth[0].phyLayer.interFrameGapInserter interpacketGap:vector ETV
attr interpolationmode sample-hold
attr recordingmode vector
attr source "count(interpacketGapStarted) - count(interpacketGapEnded)"
attr title "interpacket gap state"
attr type int
vector 112 TrainTopology.HVACClient[4].eth[0].phyLayer.transmitter transmitting:vector ETV
attr interpolationmode sample-hold
attr recordingmode vector
attr source "count(transmissionStarted) - count(transmissionEnded)"
attr title "transmitting state"
attr type int
vector 113 TrainTopology.HVACClient[4].udp passedUpPk:vector(count) ETV
attr interpolationmode none
attr recordingmode vector(count)
attr source packetSentToUpper
attr title "packets passed up, count"
vector 114 TrainTopology.HVACClient[4].udp droppedPkWrongPort:vector(count) ETV
attr interpolationmode none
attr recordingmode vector(count)
attr source packetDropReasonIsNoPortFound(packetDropped)
attr title "packets dropped (wrong port), count"
vector 115 TrainTopology.HVACClient[4].udp droppedPkBadChecksum:vector(count) ETV
attr interpolationmode none
attr recordingmode vector(count)
attr source packetDropReasonIsIncorrectlyReceived(packetDropped)
attr title "packets dropped (checksum error), count"
vector 116 TrainTopology.HVACClient[5].eth[0].phyLayer.interFrameGapInserter interpacketGap:vector ETV
attr interpolationmode sample-hold
attr recordingmode vector
attr source "count(interpacketGapStarted) - count(interpacketGapEnded)"
attr title "interpacket gap state"
attr type int
vector 117 TrainTopology.HVACClient[5].eth[0].phyLayer.transmitter transmitting:vector ETV
attr interpolationmode sample-hold
attr recordingmode vector
attr source "count(transmissionStarted) - count(transmissionEnded)"
attr title "transmitting state"
attr type int
vector 118 TrainTopology.HVACClient[5].udp passedUpPk:vector(count) ETV
attr interpolationmode none
attr recordingmode vector(count)
attr source packetSentToUpper
attr title "packets passed up, count"
vector 119 TrainTopology.HVACClient[5].udp droppedPkWrongPort:vector(count) ETV
attr interpolationmode none
attr recordingmode vector(count)
attr source packetDropReasonIsNoPortFound(packetDropped)
attr title "packets dropped (wrong port), count"
vector 120 TrainTopology.HVACClient[5].udp droppedPkBadChecksum:vector(count) ETV
attr interpolationmode none
attr recordingmode vector(count)
attr source packetDropReasonIsIncorrectlyReceived(packetDropped)
attr title "packets dropped (checksum error), count"
vector 121 TrainTopology.HVACClient[6].eth[0].phyLayer.interFrameGapInserter interpacketGap:vector ETV
attr interpolationmode sample-hold
attr recordingmode vector
attr source "count(interpacketGapStarted) - count(interpacketGapEnded)"
attr title "interpacket gap state"
attr type int
vector 122 TrainTopology.HVACClient[6].eth[0].phyLayer.transmitter transmitting:vector ETV
attr interpolationmode sample-hold
attr recordingmode vector
attr source "count(transmissionStarted) - count(transmissionEnded)"
attr title "transmitting state"
attr type int
vector 123 TrainTopology.HVACClient[6].udp passedUpPk:vector(count) ETV
attr interpolationmode none
attr recordingmode vector(count)
attr source packetSentToUpper
attr title "packets passed up, count"
vector 124 TrainTopology.HVACClient[6].udp droppedPkWrongPort:vector(count) ETV
attr interpolationmode none
attr recordingmode vector(count)
attr source packetDropReasonIsNoPortFound(packetDropped)
attr title "packets dropped (wrong port), count"
vector 125 TrainTopology.HVACClient[6].udp droppedPkBadChecksum:vector(count) ETV
attr interpolationmode none
attr recordingmode vector(count)
attr source packetDropReasonIsIncorrectlyReceived(packetDropped)
attr title "packets dropped (checksum error), count"
vector 126 TrainTopology.HVACClient[7].eth[0].phyLayer.interFrameGapInserter interpacketGap:vector ETV
attr interpolationmode sample-hold
attr recordingmode vector
attr source "count(interpacketGapStarted) - count(interpacketGapEnded)"
attr title "interpacket gap state"
attr type int
vector 127 TrainTopology.HVACClient[7].eth[0].phyLayer.transmitter transmitting:vector ETV
attr interpolationmode sample-hold
attr recordingmode vector
attr source "count(transmissionStarted) - count(transmissionEnded)"
attr title "transmitting state"
attr type int
vector 128 TrainTopology.HVACClient[7].udp passedUpPk:vector(count) ETV
attr interpolationmode none
attr recordingmode vector(count)
attr source packetSentToUpper
attr title "packets passed up, count"
vector 129 TrainTopology.HVACClient[7].udp droppedPkWrongPort:vector(count) ETV
attr interpolationmode none
attr recordingmode vector(count)
attr source packetDropReasonIsNoPortFound(packetDropped)
attr title "packets dropped (wrong port), count"
vector 130 TrainTopology.HVACClient[7].udp droppedPkBadChecksum:vector(count) ETV
attr interpolationmode none
attr recordingmode vector(count)
attr source packetDropReasonIsIncorrectlyReceived(packetDropped)
attr title "packets dropped (checksum error), count"
vector 131 TrainTopology.HVACUe[0].udp passedUpPk:vector(count) ETV
attr interpolationmode none
attr recordingmode vector(count)
attr source packetSentToUpper
attr title "packets passed up, count"
vector 132 TrainTopology.HVACUe[0].udp droppedPkWrongPort:vector(count) ETV
attr interpolationmode none
attr recordingmode vector(count)
attr source packetDropReasonIsNoPortFound(packetDropped)
attr title "packets dropped (wrong port), count"
vector 133 TrainTopology.HVACUe[0].udp droppedPkBadChecksum:vector(count) ETV
attr interpolationmode none
attr recordingmode vector(count)
attr source packetDropReasonIsIncorrectlyReceived(packetDropped)
attr title "packets dropped (checksum error), count"
vector 134 TrainTopology.HVACUe[1].udp passedUpPk:vector(count) ETV
attr interpolationmode none
attr recordingmode vector(count)
attr source packetSentToUpper
attr title "packets passed up, count"
vector 135 TrainTopology.HVACUe[1].udp droppedPkWrongPort:vector(count) ETV
attr interpolationmode none
attr recordingmode vector(count)
attr source packetDropReasonIsNoPortFound(packetDropped)
attr title "packets dropped (wrong port), count"
vector 136 TrainTopology.HVACUe[1].udp droppedPkBadChecksum:vector(count) ETV
attr interpolationmode none
attr recordingmode vector(count)
attr source packetDropReasonIsIncorrectlyReceived(packetDropped)
attr title "packets dropped (checksum error), count"
vector 137 TrainTopology.HVACUe[2].udp passedUpPk:vector(count) ETV
attr interpolationmode none
attr recordingmode vector(count)
attr source packetSentToUpper
attr title "packets passed up, count"
vector 138 TrainTopology.HVACUe[2].udp droppedPkWrongPort:vector(count) ETV
attr interpolationmode none
attr recordingmode vector(count)
attr source packetDropReasonIsNoPortFound(packetDropped)
attr title "packets dropped (wrong port), count"
vector 139 TrainTopology.HVACUe[2].udp droppedPkBadChecksum:vector(count) ETV
attr interpolationmode none
attr recordingmode vector(count)
attr source packetDropReasonIsIncorrectlyReceived(packetDropped)
attr title "packets dropped (checksum error), count"
vector 140 TrainTopology.HVACUe[3].udp passedUpPk:vector(count) ETV
attr interpolationmode none
attr recordingmode vector(count)
attr source packetSentToUpper
attr title "packets passed up, count"
vector 141 TrainTopology.HVACUe[3].udp droppedPkWrongPort:vector(count) ETV
attr interpolationmode none
attr recordingmode vector(count)
attr source packetDropReasonIsNoPortFound(packetDropped)
attr title "packets dropped (wrong port), count"
vector 142 TrainTopology.HVACUe[3].udp droppedPkBadChecksum:vector(count) ETV
attr interpolationmode none
attr recordingmode vector(count)
attr source packetDropReasonIsIncorrectlyReceived(packetDropped)
attr title "packets dropped (checksum error), count"
vector 143 TrainTopology.HVACUe[4].udp passedUpPk:vector(count) ETV
attr interpolationmode none
attr recordingmode vector(count)
attr source packetSentToUpper
attr title "packets passed up, count"
vector 144 TrainTopology.HVACUe[4].udp droppedPkWrongPort:vector(count) ETV
attr interpolationmode none
attr recordingmode vector(count)
attr source packetDropReasonIsNoPortFound(packetDropped)
attr title "packets dropped (wrong port), count"
vector 145 TrainTopology.HVACUe[4].udp droppedPkBadChecksum:vector(count) ETV
attr interpolationmode none
attr recordingmode vector(count)
attr source packetDropReasonIsIncorrectlyReceived(packetDropped)
attr title "packets dropped (checksum error), count"
vector 146 TrainTopology.HVACUe[5].udp passedUpPk:vector(count) ETV
attr interpolationmode none
attr recordingmode vector(count)
attr source packetSentToUpper
attr title "packets passed up, count"
vector 147 TrainTopology.HVACUe[5].udp droppedPkWrongPort:vector(count) ETV
attr interpolationmode none
attr recordingmode vector(count)
attr source packetDropReasonIsNoPortFound(packetDropped)
attr title "packets dropped (wrong port), count"
vector 148 TrainTopology.HVACUe[5].udp droppedPkBadChecksum:vector(count) ETV
attr interpolationmode none
attr recordingmode vector(count)
attr source packetDropReasonIsIncorrectlyReceived(packetDropped)
attr title "packets dropped (checksum error), count"
vector 149 TrainTopology.HVACUe[6].udp passedUpPk:vector(count) ETV
attr interpolationmode none
attr recordingmode vector(count)
attr source packetSentToUpper
attr title "packets passed up, count"
vector 150 TrainTopology.HVACUe[6].udp droppedPkWrongPort:vector(count) ETV
attr interpolationmode none
attr recordingmode vector(count)
attr source packetDropReasonIsNoPortFound(packetDropped)
attr title "packets dropped (wrong port), count"
vector 151 TrainTopology.HVACUe[6].udp droppedPkBadChecksum:vector(count) ETV
attr interpolationmode none
attr recordingmode vector(count)
attr source packetDropReasonIsIncorrectlyReceived(packetDropped)
attr title "packets dropped (checksum error), count"
vector 152 TrainTopology.HVACUe[7].udp passedUpPk:vector(count) ETV
attr interpolationmode none
attr recordingmode vector(count)
attr source packetSentToUpper
attr title "packets passed up, count"
vector 153 TrainTopology.HVACUe[7].udp droppedPkWrongPort:vector(count) ETV
attr interpolationmode none
attr recordingmode vector(count)
attr source packetDropReasonIsNoPortFound(packetDropped)
attr title "packets dropped (wrong port), count"
vector 154 TrainTopology.HVACUe[7].udp droppedPkBadChecksum:vector(count) ETV
attr interpolationmode none
attr recordingmode vector(count)
attr source packetDropReasonIsIncorrectlyReceived(packetDropped)
attr title "packets dropped (checksum error), count"
vector 155 TrainTopology.BCClient[0].eth[0].phyLayer.interFrameGapInserter interpacketGap:vector ETV
attr interpolationmode sample-hold
attr recordingmode vector
attr source "count(interpacketGapStarted) - count(interpacketGapEnded)"
attr title "interpacket gap state"
attr type int
vector 156 TrainTopology.BCClient[0].eth[0].phyLayer.transmitter transmitting:vector ETV
attr interpolationmode sample-hold
attr recordingmode vector
attr source "count(transmissionStarted) - count(transmissionEnded)"
attr title "transmitting state"
attr type int
vector 157 TrainTopology.BCClient[0].udp passedUpPk:vector(count) ETV
attr interpolationmode none
attr recordingmode vector(count)
attr source packetSentToUpper
attr title "packets passed up, count"
vector 158 TrainTopology.BCClient[0].udp droppedPkWrongPort:vector(count) ETV
attr interpolationmode none
attr recordingmode vector(count)
attr source packetDropReasonIsNoPortFound(packetDropped)
attr title "packets dropped (wrong port), count"
vector 159 TrainTopology.BCClient[0].udp droppedPkBadChecksum:vector(count) ETV
attr interpolationmode none
attr recordingmode vector(count)
attr source packetDropReasonIsIncorrectlyReceived(packetDropped)
attr title "packets dropped (checksum error), count"
vector 160 TrainTopology.BCClient[1].eth[0].phyLayer.interFrameGapInserter interpacketGap:vector ETV
attr interpolationmode sample-hold
attr recordingmode vector
attr source "count(interpacketGapStarted) - count(interpacketGapEnded)"
attr title "interpacket gap state"
attr type int
vector 161 TrainTopology.BCClient[1].eth[0].phyLayer.transmitter transmitting:vector ETV
attr interpolationmode sample-hold
attr recordingmode vector
attr source "count(transmissionStarted) - count(transmissionEnded)"
attr title "transmitting state"
attr type int
vector 162 TrainTopology.BCClient[1].udp passedUpPk:vector(count) ETV
attr interpolationmode none
attr recordingmode vector(count)
attr source packetSentToUpper
attr title "packets passed up, count"
vector 163 TrainTopology.BCClient[1].udp droppedPkWrongPort:vector(count) ETV
attr interpolationmode none
attr recordingmode vector(count)
attr source packetDropReasonIsNoPortFound(packetDropped)
attr title "packets dropped (wrong port), count"
vector 164 TrainTopology.BCClient[1].udp droppedPkBadChecksum:vector(count) ETV
attr interpolationmode none
attr recordingmode vector(count)
attr source packetDropReasonIsIncorrectlyReceived(packetDropped)
attr title "packets dropped (checksum error), count"
vector 165 TrainTopology.BCClient[2].eth[0].phyLayer.interFrameGapInserter interpacketGap:vector ETV
attr interpolationmode sample-hold
attr recordingmode vector
attr source "count(interpacketGapStarted) - count(interpacketGapEnded)"
attr title "interpacket gap state"
attr type int
vector 166 TrainTopology.BCClient[2].eth[0].phyLayer.transmitter transmitting:vector ETV
attr interpolationmode sample-hold
attr recordingmode vector
attr source "count(transmissionStarted) - count(transmissionEnded)"
attr title "transmitting state"
attr type int
vector 167 TrainTopology.BCClient[2].udp passedUpPk:vector(count) ETV
attr interpolationmode none
attr recordingmode vector(count)
attr source packetSentToUpper
attr title "packets passed up, count"
vector 168 TrainTopology.BCClient[2].udp droppedPkWrongPort:vector(count) ETV
attr interpolationmode none
attr recordingmode vector(count)
attr source packetDropReasonIsNoPortFound(packetDropped)
attr title "packets dropped (wrong port), count"
vector 169 TrainTopology.BCClient[2].udp droppedPkBadChecksum:vector(count) ETV
attr interpolationmode none
attr recordingmode vector(count)
attr source packetDropReasonIsIncorrectlyReceived(packetDropped)
attr title "packets dropped (checksum error), count"
vector 170 TrainTopology.BCClient[3].eth[0].phyLayer.interFrameGapInserter interpacketGap:vector ETV
attr interpolationmode sample-hold
attr recordingmode vector
attr source "count(interpacketGapStarted) - count(interpacketGapEnded)"
attr title "interpacket gap state"
attr type int
vector 171 TrainTopology.BCClient[3].eth[0].phyLayer.transmitter transmitting:vector ETV
attr interpolationmode sample-hold
attr recordingmode vector
attr source "count(transmissionStarted) - count(transmissionEnded)"
attr title "transmitting state"
attr type int
vector 172 TrainTopology.BCClient[3].udp passedUpPk:vector(count) ETV
attr interpolationmode none
attr recordingmode vector(count)
attr source packetSentToUpper
attr title "packets passed up, count"
vector 173 TrainTopology.BCClient[3].udp droppedPkWrongPort:vector(count) ETV
attr interpolationmode none
attr recordingmode vector(count)
attr source packetDropReasonIsNoPortFound(packetDropped)
attr title "packets dropped (wrong port), count"
vector 174 TrainTopology.BCClient[3].udp droppedPkBadChecksum:vector(count) ETV
attr interpolationmode none
attr recordingmode vector(count)
attr source packetDropReasonIsIncorrectlyReceived(packetDropped)
attr title "packets dropped (checksum error), count"
vector 175 TrainTopology.BCClient[4].eth[0].phyLayer.interFrameGapInserter interpacketGap:vector ETV
attr interpolationmode sample-hold
attr recordingmode vector
attr source "count(interpacketGapStarted) - count(interpacketGapEnded)"
attr title "interpacket gap state"
attr type int
vector 176 TrainTopology.BCClient[4].eth[0].phyLayer.transmitter transmitting:vector ETV
attr interpolationmode sample-hold
attr recordingmode vector
attr source "count(transmissionStarted) - count(transmissionEnded)"
attr title "transmitting state"
attr type int
vector 177 TrainTopology.BCClient[4].udp passedUpPk:vector(count) ETV
attr interpolationmode none
attr recordingmode vector(count)
attr source packetSentToUpper
attr title "packets passed up, count"
vector 178 TrainTopology.BCClient[4].udp droppedPkWrongPort:vector(count) ETV
attr interpolationmode none
attr recordingmode vector(count)
attr source packetDropReasonIsNoPortFound(packetDropped)
attr title "packets dropped (wrong port), count"
vector 179 TrainTopology.BCClient[4].udp droppedPkBadChecksum:vector(count) ETV
attr interpolationmode none
attr recordingmode vector(count)
attr source packetDropReasonIsIncorrectlyReceived(packetDropped)
attr title "packets dropped (checksum error), count"
vector 180 TrainTopology.BCClient[5].eth[0].phyLayer.interFrameGapInserter interpacketGap:vector ETV
attr interpolationmode sample-hold
attr recordingmode vector
attr source "count(interpacketGapStarted) - count(interpacketGapEnded)"
attr title "interpacket gap state"
attr type int
vector 181 TrainTopology.BCClient[5].eth[0].phyLayer.transmitter transmitting:vector ETV
attr interpolationmode sample-hold
attr recordingmode vector
attr source "count(transmissionStarted) - count(transmissionEnded)"
attr title "transmitting state"
attr type int
vector 182 TrainTopology.BCClient[5].udp passedUpPk:vector(count) ETV
attr interpolationmode none
attr recordingmode vector(count)
attr source packetSentToUpper
attr title "packets passed up, count"
vector 183 TrainTopology.BCClient[5].udp droppedPkWrongPort:vector(count) ETV
attr interpolationmode none
attr recordingmode vector(count)
attr source packetDropReasonIsNoPortFound(packetDropped)
attr title "packets dropped (wrong port), count"
vector 184 TrainTopology.BCClient[5].udp droppedPkBadChecksum:vector(count) ETV
attr interpolationmode none
attr recordingmode vector(count)
attr source packetDropReasonIsIncorrectlyReceived(packetDropped)
attr title "packets dropped (checksum error), count"
vector 185 TrainTopology.BCClient[6].eth[0].phyLayer.interFrameGapInserter interpacketGap:vector ETV
attr interpolationmode sample-hold
attr recordingmode vector
attr source "count(interpacketGapStarted) - count(interpacketGapEnded)"
attr title "interpacket gap state"
attr type int
vector 186 TrainTopology.BCClient[6].eth[0].phyLayer.transmitter transmitting:vector ETV
attr interpolationmode sample-hold
attr recordingmode vector
attr source "count(transmissionStarted) - count(transmissionEnded)"
attr title "transmitting state"
attr type int
vector 187 TrainTopology.BCClient[6].udp passedUpPk:vector(count) ETV
attr interpolationmode none
attr recordingmode vector(count)
attr source packetSentToUpper
attr title "packets passed up, count"
vector 188 TrainTopology.BCClient[6].udp droppedPkWrongPort:vector(count) ETV
attr interpolationmode none
attr recordingmode vector(count)
attr source packetDropReasonIsNoPortFound(packetDropped)
attr title "packets dropped (wrong port), count"
vector 189 TrainTopology.BCClient[6].udp droppedPkBadChecksum:vector(count) ETV
attr interpolationmode none
attr recordingmode vector(count)
attr source packetDropReasonIsIncorrectlyReceived(packetDropped)
attr title "packets dropped (checksum error), count"
vector 190 TrainTopology.BCClient[7].eth[0].phyLayer.interFrameGapInserter interpacketGap:vector ETV
attr interpolationmode sample-hold
attr recordingmode vector
attr source "count(interpacketGapStarted) - count(interpacketGapEnded)"
attr title "interpacket gap state"
attr type int
vector 191 TrainTopology.BCClient[7].eth[0].phyLayer.transmitter transmitting:vector ETV
attr interpolationmode sample-hold
attr recordingmode vector
attr source "count(transmissionStarted) - count(transmissionEnded)"
attr title "transmitting state"
attr type int
vector 192 TrainTopology.BCClient[7].udp passedUpPk:vector(count) ETV
attr interpolationmode none
attr recordingmode vector(count)
attr source packetSentToUpper
attr title "packets passed up, count"
vector 193 TrainTopology.BCClient[7].udp droppedPkWrongPort:vector(count) ETV
attr interpolationmode none
attr recordingmode vector(count)
attr source packetDropReasonIsNoPortFound(packetDropped)
attr title "packets dropped (wrong port), count"
vector 194 TrainTopology.BCClient[7].udp droppedPkBadChecksum:vector(count) ETV
attr interpolationmode none
attr recordingmode vector(count)
attr source packetDropReasonIsIncorrectlyReceived(packetDropped)
attr title "packets dropped (checksum error), count"
vector 195 TrainTopology.BCUe[0].udp passedUpPk:vector(count) ETV
attr interpolationmode none
attr recordingmode vector(count)
attr source packetSentToUpper
attr title "packets passed up, count"
vector 196 TrainTopology.BCUe[0].udp droppedPkWrongPort:vector(count) ETV
attr interpolationmode none
attr recordingmode vector(count)
attr source packetDropReasonIsNoPortFound(packetDropped)
attr title "packets dropped (wrong port), count"
vector 197 TrainTopology.BCUe[0].udp droppedPkBadChecksum:vector(count) ETV
attr interpolationmode none
attr recordingmode vector(count)
attr source packetDropReasonIsIncorrectlyReceived(packetDropped)
attr title "packets dropped (checksum error), count"
vector 198 TrainTopology.BCUe[1].udp passedUpPk:vector(count) ETV
attr interpolationmode none
attr recordingmode vector(count)
attr source packetSentToUpper
attr title "packets passed up, count"
vector 199 TrainTopology.BCUe[1].udp droppedPkWrongPort:vector(count) ETV
attr interpolationmode none
attr recordingmode vector(count)
attr source packetDropReasonIsNoPortFound(packetDropped)
attr title "packets dropped (wrong port), count"
vector 200 TrainTopology.BCUe[1].udp droppedPkBadChecksum:vector(count) ETV
attr interpolationmode none
attr recordingmode vector(count)
attr source packetDropReasonIsIncorrectlyReceived(packetDropped)
attr title "packets dropped (checksum error), count"
vector 201 TrainTopology.BCUe[2].udp passedUpPk:vector(count) ETV
attr interpolationmode none
attr recordingmode vector(count)
attr source packetSentToUpper
attr title "packets passed up, count"
vector 202 TrainTopology.BCUe[2].udp droppedPkWrongPort:vector(count) ETV
attr interpolationmode none
attr recordingmode vector(count)
attr source packetDropReasonIsNoPortFound(packetDropped)
attr title "packets dropped (wrong port), count"
vector 203 TrainTopology.BCUe[2].udp droppedPkBadChecksum:vector(count) ETV
attr interpolationmode none
attr recordingmode vector(count)
attr source packetDropReasonIsIncorrectlyReceived(packetDropped)
attr title "packets dropped (checksum error), count"
vector 204 TrainTopology.BCUe[3].udp passedUpPk:vector(count) ETV
attr interpolationmode none
attr recordingmode vector(count)
attr source packetSentToUpper
attr title "packets passed up, count"
vector 205 TrainTopology.BCUe[3].udp droppedPkWrongPort:vector(count) ETV
attr interpolationmode none
attr recordingmode vector(count)
attr source packetDropReasonIsNoPortFound(packetDropped)
attr title "packets dropped (wrong port), count"
vector 206 TrainTopology.BCUe[3].udp droppedPkBadChecksum:vector(count) ETV
attr interpolationmode none
attr recordingmode vector(count)
attr source packetDropReasonIsIncorrectlyReceived(packetDropped)
attr title "packets dropped (checksum error), count"
vector 207 TrainTopology.BCUe[4].udp passedUpPk:vector(count) ETV
attr interpolationmode none
attr recordingmode vector(count)
attr source packetSentToUpper
attr title "packets passed up, count"
vector 208 TrainTopology.BCUe[4].udp droppedPkWrongPort:vector(count) ETV
attr interpolationmode none
attr recordingmode vector(count)
attr source packetDropReasonIsNoPortFound(packetDropped)
attr title "packets dropped (wrong port), count"
vector 209 TrainTopology.BCUe[4].udp droppedPkBadChecksum:vector(count) ETV
attr interpolationmode none
attr recordingmode vector(count)
attr source packetDropReasonIsIncorrectlyReceived(packetDropped)
attr title "packets dropped (checksum error), count"
vector 210 TrainTopology.BCUe[5].udp passedUpPk:vector(count) ETV
attr interpolationmode none
attr recordingmode vector(count)
attr source packetSentToUpper
attr title "packets passed up, count"
vector 211 TrainTopology.BCUe[5].udp droppedPkWrongPort:vector(count) ETV
attr interpolationmode none
attr recordingmode vector(count)
attr source packetDropReasonIsNoPortFound(packetDropped)
attr title "packets dropped (wrong port), count"
vector 212 TrainTopology.BCUe[5].udp droppedPkBadChecksum:vector(count) ETV
attr interpolationmode none
attr recordingmode vector(count)
attr source packetDropReasonIsIncorrectlyReceived(packetDropped)
attr title "packets dropped (checksum error), count"
vector 213 TrainTopology.BCUe[6].udp passedUpPk:vector(count) ETV
attr interpolationmode none
attr recordingmode vector(count)
attr source packetSentToUpper
attr title "packets passed up, count"
vector 214 TrainTopology.BCUe[6].udp droppedPkWrongPort:vector(count) ETV
attr interpolationmode none
attr recordingmode vector(count)
attr source packetDropReasonIsNoPortFound(packetDropped)
attr title "packets dropped (wrong port), count"
vector 215 TrainTopology.BCUe[6].udp droppedPkBadChecksum:vector(count) ETV
attr interpolationmode none
attr recordingmode vector(count)
attr source packetDropReasonIsIncorrectlyReceived(packetDropped)
attr title "packets dropped (checksum error), count"
vector 216 TrainTopology.BCUe[7].udp passedUpPk:vector(count) ETV
attr interpolationmode none
attr recordingmode vector(count)
attr source packetSentToUpper
attr title "packets passed up, count"
vector 217 TrainTopology.BCUe[7].udp droppedPkWrongPort:vector(count) ETV
attr interpolationmode none
attr recordingmode vector(count)
attr source packetDropReasonIsNoPortFound(packetDropped)
attr title "packets dropped (wrong port), count"
vector 218 TrainTopology.BCUe[7].udp droppedPkBadChecksum:vector(count) ETV
attr interpolationmode none
attr recordingmode vector(count)
attr source packetDropReasonIsIncorrectlyReceived(packetDropped)
attr title "packets dropped (checksum error), count"
vector 219 TrainTopology.TCUClient[0].eth[0].phyLayer.interFrameGapInserter interpacketGap:vector ETV
attr interpolationmode sample-hold
attr recordingmode vector
attr source "count(interpacketGapStarted) - count(interpacketGapEnded)"
attr title "interpacket gap state"
attr type int
vector 220 TrainTopology.TCUClient[0].eth[0].phyLayer.transmitter transmitting:vector ETV
attr interpolationmode sample-hold
attr recordingmode vector
attr source "count(transmissionStarted) - count(transmissionEnded)"
attr title "transmitting state"
attr type int
vector 221 TrainTopology.TCUClient[0].udp passedUpPk:vector(count) ETV
attr interpolationmode none
attr recordingmode vector(count)
attr source packetSentToUpper
attr title "packets passed up, count"
vector 222 TrainTopology.TCUClient[0].udp droppedPkWrongPort:vector(count) ETV
attr interpolationmode none
attr recordingmode vector(count)
attr source packetDropReasonIsNoPortFound(packetDropped)
attr title "packets dropped (wrong port), count"
vector 223 TrainTopology.TCUClient[0].udp droppedPkBadChecksum:vector(count) ETV
attr interpolationmode none
attr recordingmode vector(count)
attr source packetDropReasonIsIncorrectlyReceived(packetDropped)
attr title "packets dropped (checksum error), count"
vector 224 TrainTopology.TCUClient[1].eth[0].phyLayer.interFrameGapInserter interpacketGap:vector ETV
attr interpolationmode sample-hold
attr recordingmode vector
attr source "count(interpacketGapStarted) - count(interpacketGapEnded)"
attr title "interpacket gap state"
attr type int
vector 225 TrainTopology.TCUClient[1].eth[0].phyLayer.transmitter transmitting:vector ETV
attr interpolationmode sample-hold
attr recordingmode vector
attr source "count(transmissionStarted) - count(transmissionEnded)"
attr title "transmitting state"
attr type int
vector 226 TrainTopology.TCUClient[1].udp passedUpPk:vector(count) ETV
attr interpolationmode none
attr recordingmode vector(count)
attr source packetSentToUpper
attr title "packets passed up, count"
vector 227 TrainTopology.TCUClient[1].udp droppedPkWrongPort:vector(count) ETV
attr interpolationmode none
attr recordingmode vector(count)
attr source packetDropReasonIsNoPortFound(packetDropped)
attr title "packets dropped (wrong port), count"
vector 228 TrainTopology.TCUClient[1].udp droppedPkBadChecksum:vector(count) ETV
attr interpolationmode none
attr recordingmode vector(count)
attr source packetDropReasonIsIncorrectlyReceived(packetDropped)
attr title "packets dropped (checksum error), count"
vector 229 TrainTopology.TCUClient[2].eth[0].phyLayer.interFrameGapInserter interpacketGap:vector ETV
attr interpolationmode sample-hold
attr recordingmode vector
attr source "count(interpacketGapStarted) - count(interpacketGapEnded)"
attr title "interpacket gap state"
attr type int
vector 230 TrainTopology.TCUClient[2].eth[0].phyLayer.transmitter transmitting:vector ETV
attr interpolationmode sample-hold
attr recordingmode vector
attr source "count(transmissionStarted) - count(transmissionEnded)"
attr title "transmitting state"
attr type int
vector 231 TrainTopology.TCUClient[2].udp passedUpPk:vector(count) ETV
attr interpolationmode none
attr recordingmode vector(count)
attr source packetSentToUpper
attr title "packets passed up, count"
vector 232 TrainTopology.TCUClient[2].udp droppedPkWrongPort:vector(count) ETV
attr interpolationmode none
attr recordingmode vector(count)
attr source packetDropReasonIsNoPortFound(packetDropped)
attr title "packets dropped (wrong port), count"
vector 233 TrainTopology.TCUClient[2].udp droppedPkBadChecksum:vector(count) ETV
attr interpolationmode none
attr recordingmode vector(count)
attr source packetDropReasonIsIncorrectlyReceived(packetDropped)
attr title "packets dropped (checksum error), count"
vector 234 TrainTopology.TCUClient[3].eth[0].phyLayer.interFrameGapInserter interpacketGap:vector ETV
attr interpolationmode sample-hold
attr recordingmode vector
attr source "count(interpacketGapStarted) - count(interpacketGapEnded)"
attr title "interpacket gap state"
attr type int
vector 235 TrainTopology.TCUClient[3].eth[0].phyLayer.transmitter transmitting:vector ETV
attr interpolationmode sample-hold
attr recordingmode vector
attr source "count(transmissionStarted) - count(transmissionEnded)"
attr title "transmitting state"
attr type int
vector 236 TrainTopology.TCUClient[3].udp passedUpPk:vector(count) ETV
attr interpolationmode none
attr recordingmode vector(count)
attr source packetSentToUpper
attr title "packets passed up, count"
vector 237 TrainTopology.TCUClient[3].udp droppedPkWrongPort:vector(count) ETV
attr interpolationmode none
attr recordingmode vector(count)
attr source packetDropReasonIsNoPortFound(packetDropped)
attr title "packets dropped (wrong port), count"
vector 238 TrainTopology.TCUClient[3].udp droppedPkBadChecksum:vector(count) ETV
attr interpolationmode none
attr recordingmode vector(count)
attr source packetDropReasonIsIncorrectlyReceived(packetDropped)
attr title "packets dropped (checksum error), count"
vector 239 TrainTopology.TCUClient[4].eth[0].phyLayer.interFrameGapInserter interpacketGap:vector ETV
attr interpolationmode sample-hold
attr recordingmode vector
attr source "count(interpacketGapStarted) - count(interpacketGapEnded)"
attr title "interpacket gap state"
attr type int
vector 240 TrainTopology.TCUClient[4].eth[0].phyLayer.transmitter transmitting:vector ETV
attr interpolationmode sample-hold
attr recordingmode vector
attr source "count(transmissionStarted) - count(transmissionEnded)"
attr title "transmitting state"
attr type int
vector 241 TrainTopology.TCUClient[4].udp passedUpPk:vector(count) ETV
attr interpolationmode none
attr recordingmode vector(count)
attr source packetSentToUpper
attr title "packets passed up, count"
vector 242 TrainTopology.TCUClient[4].udp droppedPkWrongPort:vector(count) ETV
attr interpolationmode none
attr recordingmode vector(count)
attr source packetDropReasonIsNoPortFound(packetDropped)
attr title "packets dropped (wrong port), count"
vector 243 TrainTopology.TCUClient[4].udp droppedPkBadChecksum:vector(count) ETV
attr interpolationmode none
attr recordingmode vector(count)
attr source packetDropReasonIsIncorrectlyReceived(packetDropped)
attr title "packets dropped (checksum error), count"
vector 244 TrainTopology.TCUClient[5].eth[0].phyLayer.interFrameGapInserter interpacketGap:vector ETV
attr interpolationmode sample-hold
attr recordingmode vector
attr source "count(interpacketGapStarted) - count(interpacketGapEnded)"
attr title "interpacket gap state"
attr type int
vector 245 TrainTopology.TCUClient[5].eth[0].phyLayer.transmitter transmitting:vector ETV
attr interpolationmode sample-hold
attr recordingmode vector
attr source "count(transmissionStarted) - count(transmissionEnded)"
attr title "transmitting state"
attr type int
vector 246 TrainTopology.TCUClient[5].udp passedUpPk:vector(count) ETV
attr interpolationmode none
attr recordingmode vector(count)
attr source packetSentToUpper
attr title "packets passed up, count"
vector 247 TrainTopology.TCUClient[5].udp droppedPkWrongPort:vector(count) ETV
attr interpolationmode none
attr recordingmode vector(count)
attr source packetDropReasonIsNoPortFound(packetDropped)
attr title "packets dropped (wrong port), count"
vector 248 TrainTopology.TCUClient[5].udp droppedPkBadChecksum:vector(count) ETV
attr interpolationmode none
attr recordingmode vector(count)
attr source packetDropReasonIsIncorrectlyReceived(packetDropped)
attr title "packets dropped (checksum error), count"
vector 249 TrainTopology.TCUClient[6].eth[0].phyLayer.interFrameGapInserter interpacketGap:vector ETV
attr interpolationmode sample-hold
attr recordingmode vector
attr source "count(interpacketGapStarted) - count(interpacketGapEnded)"
attr title "interpacket gap state"
attr type int
vector 250 TrainTopology.TCUClient[6].eth[0].phyLayer.transmitter transmitting:vector ETV
attr interpolationmode sample-hold
attr recordingmode vector
attr source "count(transmissionStarted) - count(transmissionEnded)"
attr title "transmitting state"
attr type int
vector 251 TrainTopology.TCUClient[6].udp passedUpPk:vector(count) ETV
attr interpolationmode none
attr recordingmode vector(count)
attr source packetSentToUpper
attr title "packets passed up, count"
vector 252 TrainTopology.TCUClient[6].udp droppedPkWrongPort:vector(count) ETV
attr interpolationmode none
attr recordingmode vector(count)
attr source packetDropReasonIsNoPortFound(packetDropped)
attr title "packets dropped (wrong port), count"
vector 253 TrainTopology.TCUClient[6].udp droppedPkBadChecksum:vector(count) ETV
attr interpolationmode none
attr recordingmode vector(count)
attr source packetDropReasonIsIncorrectlyReceived(packetDropped)
attr title "packets dropped (checksum error), count"
vector 254 TrainTopology.TCUClient[7].eth[0].phyLayer.interFrameGapInserter interpacketGap:vector ETV
attr interpolationmode sample-hold
attr recordingmode vector
attr source "count(interpacketGapStarted) - count(interpacketGapEnded)"
attr title "interpacket gap state"
attr type int
vector 255 TrainTopology.TCUClient[7].eth[0].phyLayer.transmitter transmitting:vector ETV
attr interpolationmode sample-hold
attr recordingmode vector
attr source "count(transmissionStarted) - count(transmissionEnded)"
attr title "transmitting state"
attr type int
vector 256 TrainTopology.TCUClient[7].udp passedUpPk:vector(count) ETV
attr interpolationmode none
attr recordingmode vector(count)
attr source packetSentToUpper
attr title "packets passed up, count"
vector 257 TrainTopology.TCUClient[7].udp droppedPkWrongPort:vector(count) ETV
attr interpolationmode none
attr recordingmode vector(count)
attr source packetDropReasonIsNoPortFound(packetDropped)
attr title "packets dropped (wrong port), count"
vector 258 TrainTopology.TCUClient[7].udp droppedPkBadChecksum:vector(count) ETV
attr interpolationmode none
attr recordingmode vector(count)
attr source packetDropReasonIsIncorrectlyReceived(packetDropped)
attr title "packets dropped (checksum error), count"
vector 259 TrainTopology.TCUUe[0].udp passedUpPk:vector(count) ETV
attr interpolationmode none
attr recordingmode vector(count)
attr source packetSentToUpper
attr title "packets passed up, count"
vector 260 TrainTopology.TCUUe[0].udp droppedPkWrongPort:vector(count) ETV
attr interpolationmode none
attr recordingmode vector(count)
attr source packetDropReasonIsNoPortFound(packetDropped)
attr title "packets dropped (wrong port), count"
vector 261 TrainTopology.TCUUe[0].udp droppedPkBadChecksum:vector(count) ETV
attr interpolationmode none
attr recordingmode vector(count)
attr source packetDropReasonIsIncorrectlyReceived(packetDropped)
attr title "packets dropped (checksum error), count"
vector 262 TrainTopology.TCUUe[1].udp passedUpPk:vector(count) ETV
attr interpolationmode none
attr recordingmode vector(count)
attr source packetSentToUpper
attr title "packets passed up, count"
vector 263 TrainTopology.TCUUe[1].udp droppedPkWrongPort:vector(count) ETV
attr interpolationmode none
attr recordingmode vector(count)
attr source packetDropReasonIsNoPortFound(packetDropped)
attr title "packets dropped (wrong port), count"
vector 264 TrainTopology.TCUUe[1].udp droppedPkBadChecksum:vector(count) ETV
attr interpolationmode none
attr recordingmode vector(count)
attr source packetDropReasonIsIncorrectlyReceived(packetDropped)
attr title "packets dropped (checksum error), count"
vector 265 TrainTopology.TCUUe[2].udp passedUpPk:vector(count) ETV
attr interpolationmode none
attr recordingmode vector(count)
attr source packetSentToUpper
attr title "packets passed up, count"
vector 266 TrainTopology.TCUUe[2].udp droppedPkWrongPort:vector(count) ETV
attr interpolationmode none
attr recordingmode vector(count)
attr source packetDropReasonIsNoPortFound(packetDropped)
attr title "packets dropped (wrong port), count"
vector 267 TrainTopology.TCUUe[2].udp droppedPkBadChecksum:vector(count) ETV
attr interpolationmode none
attr recordingmode vector(count)
attr source packetDropReasonIsIncorrectlyReceived(packetDropped)
attr title "packets dropped (checksum error), count"
vector 268 TrainTopology.TCUUe[3].udp passedUpPk:vector(count) ETV
attr interpolationmode none
attr recordingmode vector(count)
attr source packetSentToUpper
attr title "packets passed up, count"
vector 269 TrainTopology.TCUUe[3].udp droppedPkWrongPort:vector(count) ETV
attr interpolationmode none
attr recordingmode vector(count)
attr source packetDropReasonIsNoPortFound(packetDropped)
attr title "packets dropped (wrong port), count"
vector 270 TrainTopology.TCUUe[3].udp droppedPkBadChecksum:vector(count) ETV
attr interpolationmode none
attr recordingmode vector(count)
attr source packetDropReasonIsIncorrectlyReceived(packetDropped)
attr title "packets dropped (checksum error), count"
vector 271 TrainTopology.TCUUe[4].udp passedUpPk:vector(count) ETV
attr interpolationmode none
attr recordingmode vector(count)
attr source packetSentToUpper
attr title "packets passed up, count"
vector 272 TrainTopology.TCUUe[4].udp droppedPkWrongPort:vector(count) ETV
attr interpolationmode none
attr recordingmode vector(count)
attr source packetDropReasonIsNoPortFound(packetDropped)
attr title "packets dropped (wrong port), count"
vector 273 TrainTopology.TCUUe[4].udp droppedPkBadChecksum:vector(count) ETV
attr interpolationmode none
attr recordingmode vector(count)
attr source packetDropReasonIsIncorrectlyReceived(packetDropped)
attr title "packets dropped (checksum error), count"
vector 274 TrainTopology.TCUUe[5].udp passedUpPk:vector(count) ETV
attr interpolationmode none
attr recordingmode vector(count)
attr source packetSentToUpper
attr title "packets passed up, count"
vector 275 TrainTopology.TCUUe[5].udp droppedPkWrongPort:vector(count) ETV
attr interpolationmode none
attr recordingmode vector(count)
attr source packetDropReasonIsNoPortFound(packetDropped)
attr title "packets dropped (wrong port), count"
vector 276 TrainTopology.TCUUe[5].udp droppedPkBadChecksum:vector(count) ETV
attr interpolationmode none
attr recordingmode vector(count)
attr source packetDropReasonIsIncorrectlyReceived(packetDropped)
attr title "packets dropped (checksum error), count"
vector 277 TrainTopology.TCUUe[6].udp passedUpPk:vector(count) ETV
attr interpolationmode none
attr recordingmode vector(count)
attr source packetSentToUpper
attr title "packets passed up, count"
vector 278 TrainTopology.TCUUe[6].udp droppedPkWrongPort:vector(count) ETV
attr interpolationmode none
attr recordingmode vector(count)
attr source packetDropReasonIsNoPortFound(packetDropped)
attr title "packets dropped (wrong port), count"
vector 279 TrainTopology.TCUUe[6].udp droppedPkBadChecksum:vector(count) ETV
attr interpolationmode none
attr recordingmode vector(count)
attr source packetDropReasonIsIncorrectlyReceived(packetDropped)
attr title "packets dropped (checksum error), count"
vector 280 TrainTopology.TCUUe[7].udp passedUpPk:vector(count) ETV
attr interpolationmode none
attr recordingmode vector(count)
attr source packetSentToUpper
attr title "packets passed up, count"
vector 281 TrainTopology.TCUUe[7].udp droppedPkWrongPort:vector(count) ETV
attr interpolationmode none
attr recordingmode vector(count)
attr source packetDropReasonIsNoPortFound(packetDropped)
attr title "packets dropped (wrong port), count"
vector 282 TrainTopology.TCUUe[7].udp droppedPkBadChecksum:vector(count) ETV
attr interpolationmode none
attr recordingmode vector(count)
attr source packetDropReasonIsIncorrectlyReceived(packetDropped)
attr title "packets dropped (checksum error), count"
vector 283 TrainTopology.BCUClient[0].eth[0].phyLayer.interFrameGapInserter interpacketGap:vector ETV
attr interpolationmode sample-hold
attr recordingmode vector
attr source "count(interpacketGapStarted) - count(interpacketGapEnded)"
attr title "interpacket gap state"
attr type int
vector 284 TrainTopology.BCUClient[0].eth[0].phyLayer.transmitter transmitting:vector ETV
attr interpolationmode sample-hold
attr recordingmode vector
attr source "count(transmissionStarted) - count(transmissionEnded)"
attr title "transmitting state"
attr type int
vector 285 TrainTopology.BCUClient[0].udp passedUpPk:vector(count) ETV
attr interpolationmode none
attr recordingmode vector(count)
attr source packetSentToUpper
attr title "packets passed up, count"
vector 286 TrainTopology.BCUClient[0].udp droppedPkWrongPort:vector(count) ETV
attr interpolationmode none
attr recordingmode vector(count)
attr source packetDropReasonIsNoPortFound(packetDropped)
attr title "packets dropped (wrong port), count"
vector 287 TrainTopology.BCUClient[0].udp droppedPkBadChecksum:vector(count) ETV
attr interpolationmode none
attr recordingmode vector(count)
attr source packetDropReasonIsIncorrectlyReceived(packetDropped)
attr title "packets dropped (checksum error), count"
vector 288 TrainTopology.BCUClient[1].eth[0].phyLayer.interFrameGapInserter interpacketGap:vector ETV
attr interpolationmode sample-hold
attr recordingmode vector
attr source "count(interpacketGapStarted) - count(interpacketGapEnded)"
attr title "interpacket gap state"
attr type int
vector 289 TrainTopology.BCUClient[1].eth[0].phyLayer.transmitter transmitting:vector ETV
attr interpolationmode sample-hold
attr recordingmode vector
attr source "count(transmissionStarted) - count(transmissionEnded)"
attr title "transmitting state"
attr type int
vector 290 TrainTopology.BCUClient[1].udp passedUpPk:vector(count) ETV
attr interpolationmode none
attr recordingmode vector(count)
attr source packetSentToUpper
attr title "packets passed up, count"
vector 291 TrainTopology.BCUClient[1].udp droppedPkWrongPort:vector(count) ETV
attr interpolationmode none
attr recordingmode vector(count)
attr source packetDropReasonIsNoPortFound(packetDropped)
attr title "packets dropped (wrong port), count"
vector 292 TrainTopology.BCUClient[1].udp droppedPkBadChecksum:vector(count) ETV
attr interpolationmode none
attr recordingmode vector(count)
attr source packetDropReasonIsIncorrectlyReceived(packetDropped)
attr title "packets dropped (checksum error), count"
vector 293 TrainTopology.BCUClient[2].eth[0].phyLayer.interFrameGapInserter interpacketGap:vector ETV
attr interpolationmode sample-hold
attr recordingmode vector
attr source "count(interpacketGapStarted) - count(interpacketGapEnded)"
attr title "interpacket gap state"
attr type int
vector 294 TrainTopology.BCUClient[2].eth[0].phyLayer.transmitter transmitting:vector ETV
attr interpolationmode sample-hold
attr recordingmode vector
attr source "count(transmissionStarted) - count(transmissionEnded)"
attr title "transmitting state"
attr type int
vector 295 TrainTopology.BCUClient[2].udp passedUpPk:vector(count) ETV
attr interpolationmode none
attr recordingmode vector(count)
attr source packetSentToUpper
attr title "packets passed up, count"
vector 296 TrainTopology.BCUClient[2].udp droppedPkWrongPort:vector(count) ETV
attr interpolationmode none
attr recordingmode vector(count)
attr source packetDropReasonIsNoPortFound(packetDropped)
attr title "packets dropped (wrong port), count"
vector 297 TrainTopology.BCUClient[2].udp droppedPkBadChecksum:vector(count) ETV
attr interpolationmode none
attr recordingmode vector(count)
attr source packetDropReasonIsIncorrectlyReceived(packetDropped)
attr title "packets dropped (checksum error), count"
vector 298 TrainTopology.BCUClient[3].eth[0].phyLayer.interFrameGapInserter interpacketGap:vector ETV
attr interpolationmode sample-hold
attr recordingmode vector
attr source "count(interpacketGapStarted) - count(interpacketGapEnded)"
attr title "interpacket gap state"
attr type int
vector 299 TrainTopology.BCUClient[3].eth[0].phyLayer.transmitter transmitting:vector ETV
attr interpolationmode sample-hold
attr recordingmode vector
attr source "count(transmissionStarted) - count(transmissionEnded)"
attr title "transmitting state"
attr type int
vector 300 TrainTopology.BCUClient[3].udp passedUpPk:vector(count) ETV
attr interpolationmode none
attr recordingmode vector(count)
attr source packetSentToUpper
attr title "packets passed up, count"
vector 301 TrainTopology.BCUClient[3].udp droppedPkWrongPort:vector(count) ETV
attr interpolationmode none
attr recordingmode vector(count)
attr source packetDropReasonIsNoPortFound(packetDropped)
attr title "packets dropped (wrong port), count"
vector 302 TrainTopology.BCUClient[3].udp droppedPkBadChecksum:vector(count) ETV
attr interpolationmode none
attr recordingmode vector(count)
attr source packetDropReasonIsIncorrectlyReceived(packetDropped)
attr title "packets dropped (checksum error), count"
vector 303 TrainTopology.BCUClient[4].eth[0].phyLayer.interFrameGapInserter interpacketGap:vector ETV
attr interpolationmode sample-hold
attr recordingmode vector
attr source "count(interpacketGapStarted) - count(interpacketGapEnded)"
attr title "interpacket gap state"
attr type int
vector 304 TrainTopology.BCUClient[4].eth[0].phyLayer.transmitter transmitting:vector ETV
attr interpolationmode sample-hold
attr recordingmode vector
attr source "count(transmissionStarted) - count(transmissionEnded)"
attr title "transmitting state"
attr type int
vector 305 TrainTopology.BCUClient[4].udp passedUpPk:vector(count) ETV
attr interpolationmode none
attr recordingmode vector(count)
attr source packetSentToUpper
attr title "packets passed up, count"
vector 306 TrainTopology.BCUClient[4].udp droppedPkWrongPort:vector(count) ETV
attr interpolationmode none
attr recordingmode vector(count)
[...]
4499	9814163 216 361454 361454 0.1 1.185 12 0 0 0 0
4500	9814379 216 361454 361454 0.1 1.185 12 0 0 0 0
4501	9814595 216 361454 361454 0.1 1.185 12 0 0 0 0
4502	9814811 216 361454 361454 0.1 1.185 12 0 0 0 0
4503	9815027 216 361454 361454 0.1 1.185 12 0 0 0 0
4504	9815243 216 361454 361454 0.1 1.185 12 0 0 0 0
4505	9815459 216 361454 361454 0.1 1.185 12 0 0 0 0
4506	9815675 216 361454 361454 0.1 1.185 12 0 0 0 0
4507	9815891 216 361454 361454 0.1 1.185 12 0 0 0 0
4508	9816107 216 361454 361454 0.1 1.185 12 0 0 0 0
4509	9816323 216 361454 361454 0.1 1.185 12 0 0 0 0
4510	9816539 216 361454 361454 0.1 1.185 12 0 0 0 0
4511	9816755 216 361454 361454 0.1 1.185 12 0 0 0 0
4512	9816971 216 361454 361454 0.1 1.185 12 0 0 0 0
4513	9817187 216 361454 361454 0.1 1.185 12 0 0 0 0
4514	9817403 216 361454 361454 0.1 1.185 12 0 0 0 0
4515	9817619 216 361454 361454 0.1 1.185 12 0 0 0 0
4516	9817835 216 361454 361454 0.1 1.185 12 0 0 0 0
4517	9818051 216 361454 361454 0.1 1.185 12 0 0 0 0
4518	9818267 216 361454 361454 0.1 1.185 12 0 0 0 0
4519	9818483 216 361454 361454 0.1 1.185 12 0 0 0 0
4520	9818699 216 361454 361454 0.1 1.185 12 0 0 0 0
4521	9818915 216 361454 361454 0.1 1.185 12 0 0 0 0
4522	9819131 216 361454 361454 0.1 1.185 12 0 0 0 0
4523	9819347 216 361454 361454 0.1 1.185 12 0 0 0 0
4524	9819563 216 361454 361454 0.1 1.185 12 0 0 0 0
4525	9819779 216 361454 361454 0.1 1.185 12 0 0 0 0
4526	9819995 216 361454 361454 0.1 1.185 12 0 0 0 0
4527	9820211 216 361454 361454 0.1 1.185 12 0 0 0 0
4528	9820427 216 361454 361454 0.1 1.185 12 0 0 0 0
4529	9820643 216 361454 361454 0.1 1.185 12 0 0 0 0
4530	9820859 216 361454 361454 0.1 1.185 12 0 0 0 0
4531	9821075 216 361454 361454 0.1 1.185 12 0 0 0 0
4532	9821291 216 361454 361454 0.1 1.185 12 0 0 0 0
4533	9821507 216 361454 361454 0.1 1.185 12 0 0 0 0
4534	9821723 216 361454 361454 0.1 1.185 12 0 0 0 0
4535	9821939 216 361454 361454 0.1 1.185 12 0 0 0 0
4536	9822155 216 361454 361454 0.1 1.185 12 0 0 0 0
4537	9822371 216 361454 361454 0.1 1.185 12 0 0 0 0
4538	9822587 216 361454 361454 0.1 1.185 12 0 0 0 0
4539	9822803 216 361454 361454 0.1 1.185 12 0 0 0 0
4540	9823019 216 361454 361454 0.1 1.185 12 0 0 0 0
4541	9823235 216 361454 361454 0.1 1.185 12 0 0 0 0
4542	9823451 216 361454 361454 0.1 1.185 12 0 0 0 0
4543	9823667 216 361454 361454 0.1 1.185 12 0 0 0 0
4544	9823883 216 361454 361454 0.1 1.185 12 0 0 0 0
4545	9824099 216 361454 361454 0.1 1.185 12 0 0 0 0
4546	9824315 216 361454 361454 0.1 1.185 12 0 0 0 0
4547	9824531 216 361454 361454 0.1 1.185 12 0 0 0 0
4548	9824747 216 361454 361454 0.1 1.185 12 0 0 0 0
4549	9824963 216 361454 361454 0.1 1.185 12 0 0 0 0
4550	9825179 216 361454 361454 0.1 1.185 12 0 0 0 0
4551	9825395 216 361454 361454 0.1 1.185 12 0 0 0 0
4552	9825611 216 361454 361454 0.1 1.185 12 0 0 0 0
4553	9825827 216 361454 361454 0.1 1.185 12 0 0 0 0
4554	9826043 216 361454 361454 0.1 1.185 12 0 0 0 0
4555	9826259 216 361454 361454 0.1 1.185 12 0 0 0 0
4556	9826475 216 361454 361454 0.1 1.185 12 0 0 0 0
4557	9826691 216 361454 361454 0.1 1.185 12 0 0 0 0
4558	9826907 216 361454 361454 0.1 1.185 12 0 0 0 0
4559	9827123 216 361454 361454 0.1 1.185 12 0 0 0 0
4560	9827339 216 361454 361454 0.1 1.185 12 0 0 0 0
4561	9827555 216 361454 361454 0.1 1.185 12 0 0 0 0
4562	9827771 216 361454 361454 0.1 1.185 12 0 0 0 0
4563	9827987 216 361454 361454 0.1 1.185 12 0 0 0 0
4564	9828203 216 361454 361454 0.1 1.185 12 0 0 0 0
4565	9828419 216 361454 361454 0.1 1.185 12 0 0 0 0
4566	9828635 216 361454 361454 0.1 1.185 12 0 0 0 0
4567	9828851 216 361454 361454 0.1 1.185 12 0 0 0 0
4568	9829067 216 361454 361454 0.1 1.185 12 0 0 0 0
4569	9829283 216 361454 361454 0.1 1.185 12 0 0 0 0
4570	9829499 216 361454 361454 0.1 1.185 12 0 0 0 0
4571	9829715 216 361454 361454 0.1 1.185 12 0 0 0 0
4572	9829931 216 361454 361454 0.1 1.185 12 0 0 0 0
4573	9830147 216 361454 361454 0.1 1.185 12 0 0 0 0
4574	9830363 216 361454 361454 0.1 1.185 12 0 0 0 0
4575	9830579 216 361454 361454 0.1 1.185 12 0 0 0 0
4576	9830795 216 361454 361454 0.1 1.185 12 0 0 0 0
4577	9831011 216 361454 361454 0.1 1.185 12 0 0 0 0
4578	9831227 216 361454 361454 0.1 1.185 12 0 0 0 0
4579	9831443 216 361454 361454 0.1 1.185 12 0 0 0 0
4580	9831659 216 361454 361454 0.1 1.185 12 0 0 0 0
4581	9831875 216 361454 361454 0.1 1.185 12 0 0 0 0
4582	9832091 216 361454 361454 0.1 1.185 12 0 0 0 0
4583	9832307 216 361454 361454 0.1 1.185 12 0 0 0 0
4584	9832523 216 361454 361454 0.1 1.185 12 0 0 0 0
4585	9832739 216 361454 361454 0.1 1.185 12 0 0 0 0
4586	9832955 216 361454 361454 0.1 1.185 12 0 0 0 0
4587	9833171 216 361454 361454 0.1 1.185 12 0 0 0 0
4588	9833387 216 361454 361454 0.1 1.185 12 0 0 0 0
4589	9833603 216 361454 361454 0.1 1.185 12 0 0 0 0
4590	9833819 216 361454 361454 0.1 1.185 12 0 0 0 0
4591	9834035 216 361454 361454 0.1 1.185 12 0 0 0 0
4592	9834251 216 361454 361454 0.1 1.185 12 0 0 0 0
4593	9834467 216 361454 361454 0.1 1.185 12 0 0 0 0
4594	9834683 216 361454 361454 0.1 1.185 12 0 0 0 0
4595	9834899 216 361454 361454 0.1 1.185 12 0 0 0 0
4596	9835115 216 361454 361454 0.1 1.185 12 0 0 0 0
4597	9835331 216 361454 361454 0.1 1.185 12 0 0 0 0
4598	9835547 216 361454 361454 0.1 1.185 12 0 0 0 0
4599	9835763 216 361454 361454 0.1 1.185 12 0 0 0 0
4600	9835979 216 361454 361454 0.1 1.185 12 0 0 0 0
4601	9836195 216 361454 361454 0.1 1.185 12 0 0 0 0
4602	9836411 216 361454 361454 0.1 1.185 12 0 0 0 0
4603	9836627 216 361454 361454 0.1 1.185 12 0 0 0 0
4604	9836843 216 361454 361454 0.1 1.185 12 0 0 0 0
4605	9837059 216 361454 361454 0.1 1.185 12 0 0 0 0
4606	9837275 216 361454 361454 0.1 1.185 12 0 0 0 0
4607	9837491 216 361454 361454 0.1 1.185 12 0 0 0 0
4608	9837707 216 361454 361454 0.1 1.185 12 0 0 0 0
4609	9837923 216 361454 361454 0.1 1.185 12 0 0 0 0
4610	9838139 216 361454 361454 0.1 1.185 12 0 0 0 0
4611	9838355 216 361454 361454 0.1 1.185 12 0 0 0 0
4612	9838571 216 361454 361454 0.1 1.185 12 0 0 0 0
4613	9838787 216 361454 361454 0.1 1.185 12 0 0 0 0
4614	9839003 216 361454 361454 0.1 1.185 12 0 0 0 0
4615	9839219 216 361454 361454 0.1 1.185 12 0 0 0 0
4616	9839435 216 361454 361454 0.1 1.185 12 0 0 0 0
4617	9839651 216 361454 361454 0.1 1.185 12 0 0 0 0
4618	9839867 216 361454 361454 0.1 1.185 12 0 0 0 0
4619	9840083 216 361454 361454 0.1 1.185 12 0 0 0 0
4620	9840299 216 361454 361454 0.1 1.185 12 0 0 0 0
4621	9840515 216 361454 361454 0.1 1.185 12 0 0 0 0
4622	9840731 216 361454 361454 0.1 1.185 12 0 0 0 0
4623	9840947 216 361454 361454 0.1 1.185 12 0 0 0 0
4624	9841163 216 361454 361454 0.1 1.185 12 0 0 0 0
4625	9841379 216 361454 361454 0.1 1.185 12 0 0 0 0
4626	9841595 216 361454 361454 0.1 1.185 12 0 0 0 0
4627	9841811 216 361454 361454 0.1 1.185 12 0 0 0 0
4628	9842027 216 361454 361454 0.1 1.185 12 0 0 0 0
4629	9842243 216 361454 361454 0.1 1.185 12 0 0 0 0
4630	9842459 216 361454 361454 0.1 1.185 12 0 0 0 0
4631	9842675 216 361454 361454 0.1 1.185 12 0 0 0 0
4632	9842891 216 361454 361454 0.1 1.185 12 0 0 0 0
4633	9843107 216 361454 361454 0.1 1.185 12 0 0 0 0
4634	9843323 216 361454 361454 0.1 1.185 12 0 0 0 0
4635	9843539 216 361454 361454 0.1 1.185 12 0 0 0 0
4636	9843755 216 361454 361454 0.1 1.185 12 0 0 0 0
4637	9843971 216 361454 361454 0.1 1.185 12 0 0 0 0
4638	9844187 216 361454 361454 0.1 1.185 12 0 0 0 0
4639	9844403 216 361454 361454 0.1 1.185 12 0 0 0 0
4640	9844619 216 361454 361454 0.1 1.185 12 0 0 0 0
4641	9844835 216 361454 361454 0.1 1.185 12 0 0 0 0
4642	9845051 216 361454 361454 0.1 1.185 12 0 0 0 0
4643	9845267 216 361454 361454 0.1 1.185 12 0 0 0 0
4644	9845483 216 361454 361454 0.1 1.185 12 0 0 0 0
4645	9845699 216 361454 361454 0.1 1.185 12 0 0 0 0
4646	9845915 216 361454 361454 0.1 1.185 12 0 0 0 0
4647	9846131 216 361454 361454 0.1 1.185 12 0 0 0 0
4648	9846347 216 361454 361454 0.1 1.185 12 0 0 0 0
4649	9846563 216 361454 361454 0.1 1.185 12 0 0 0 0
4650	9846779 216 361454 361454 0.1 1.185 12 0 0 0 0
4651	9846995 216 361454 361454 0.1 1.185 12 0 0 0 0
4652	9847211 216 361454 361454 0.1 1.185 12 0 0 0 0
4653	9847427 216 361454 361454 0.1 1.185 12 0 0 0 0
4654	9847643 216 361454 361454 0.1 1.185 12 0 0 0 0
4655	9847859 216 361454 361454 0.1 1.185 12 0 0 0 0
4656	9848075 216 361454 361454 0.1 1.185 12 0 0 0 0
4657	9848291 216 361454 361454 0.1 1.185 12 0 0 0 0
4658	9848507 216 361454 361454 0.1 1.185 12 0 0 0 0
4659	9848723 216 361454 361454 0.1 1.185 12 0 0 0 0
4660	9848939 216 361454 361454 0.1 1.185 12 0 0 0 0
4661	9849155 216 361454 361454 0.1 1.185 12 0 0 0 0
4662	9849371 216 361454 361454 0.1 1.185 12 0 0 0 0
4663	9849587 216 361454 361454 0.1 1.185 12 0 0 0 0
4664	9849803 216 361454 361454 0.1 1.185 12 0 0 0 0
4665	9850019 216 361454 361454 0.1 1.185 12 0 0 0 0
4666	9850235 216 361454 361454 0.1 1.185 12 0 0 0 0
4667	9850451 216 361454 361454 0.1 1.185 12 0 0 0 0
4668	9850667 216 361454 361454 0.1 1.185 12 0 0 0 0
4669	9850883 216 361454 361454 0.1 1.185 12 0 0 0 0
4670	9851099 216 361454 361454 0.1 1.185 12 0 0 0 0
4671	9851315 216 361454 361454 0.1 1.185 12 0 0 0 0
4672	9851531 216 361454 361454 0.1 1.185 12 0 0 0 0
4673	9851747 216 361454 361454 0.1 1.185 12 0 0 0 0
4674	9851963 216 361454 361454 0.1 1.185 12 0 0 0 0
4675	9852179 216 361454 361454 0.1 1.185 12 0 0 0 0
4676	9852395 216 361454 361454 0.1 1.185 12 0 0 0 0
4677	9852611 216 361454 361454 0.1 1.185 12 0 0 0 0
4678	9852827 216 361454 361454 0.1 1.185 12 0 0 0 0
4679	9853043 216 361454 361454 0.1 1.185 12 0 0 0 0
4680	9853259 216 361454 361454 0.1 1.185 12 0 0 0 0
4681	9853475 216 361454 361454 0.1 1.185 12 0 0 0 0
4682	9853691 216 361454 361454 0.1 1.185 12 0 0 0 0
4683	9853907 216 361454 361454 0.1 1.185 12 0 0 0 0
4684	9854123 216 361454 361454 0.1 1.185 12 0 0 0 0
4685	9854339 216 361454 361454 0.1 1.185 12 0 0 0 0
4686	9854555 216 361454 361454 0.1 1.185 12 0 0 0 0
4687	9854771 216 361454 361454 0.1 1.185 12 0 0 0 0
4688	9854987 216 361454 361454 0.1 1.185 12 0 0 0 0
4689	9855203 216 361454 361454 0.1 1.185 12 0 0 0 0
4690	9855419 216 361454 361454 0.1 1.185 12 0 0 0 0
4691	9855635 216 361454 361454 0.1 1.185 12 0 0 0 0
4692	9855851 216 361454 361454 0.1 1.185 12 0 0 0 0
4693	9856067 216 361454 361454 0.1 1.185 12 0 0 0 0
4694	9856283 216 361454 361454 0.1 1.185 12 0 0 0 0
4695	9856499 216 361454 361454 0.1 1.185 12 0 0 0 0
4696	9856715 216 361454 361454 0.1 1.185 12 0 0 0 0
4697	9856931 216 361454 361454 0.1 1.185 12 0 0 0 0
4698	9857147 216 361454 361454 0.1 1.185 12 0 0 0 0
4699	9857363 216 361454 361454 0.1 1.185 12 0 0 0 0
4700	9857579 216 361454 361454 0.1 1.185 12 0 0 0 0
4701	9857795 216 361454 361454 0.1 1.185 12 0 0 0 0
4702	9858011 216 361454 361454 0.1 1.185 12 0 0 0 0
4703	9858227 216 361454 361454 0.1 1.185 12 0 0 0 0
4704	9858443 216 361454 361454 0.1 1.185 12 0 0 0 0
4705	9858659 216 361454 361454 0.1 1.185 12 0 0 0 0
4706	9858875 216 361454 361454 0.1 1.185 12 0 0 0 0
4707	9859091 216 361454 361454 0.1 1.185 12 0 0 0 0
4708	9859307 216 361454 361454 0.1 1.185 12 0 0 0 0
4709	9859523 216 361454 361454 0.1 1.185 12 0 0 0 0
4710	9859739 216 361454 361454 0.1 1.185 12 0 0 0 0
4711	9859955 216 361454 361454 0.1 1.185 12 0 0 0 0
4712	9860171 216 361454 361454 0.1 1.185 12 0 0 0 0
4713	9860387 216 361454 361454 0.1 1.185 12 0 0 0 0
4714	9860603 216 361454 361454 0.1 1.185 12 0 0 0 0
4715	9860819 216 361454 361454 0.1 1.185 12 0 0 0 0
4716	9861035 216 361454 361454 0.1 1.185 12 0 0 0 0
4717	9861251 216 361454 361454 0.1 1.185 12 0 0 0 0
4718	9861467 216 361454 361454 0.1 1.185 12 0 0 0 0
4719	9861683 216 361454 361454 0.1 1.185 12 0 0 0 0
4720	9861899 216 361454 361454 0.1 1.185 12 0 0 0 0
4721	9862115 216 361454 361454 0.1 1.185 12 0 0 0 0
4722	9862331 216 361454 361454 0.1 1.185 12 0 0 0 0
4723	9862547 216 361454 361454 0.1 1.185 12 0 0 0 0
4724	9862763 216 361454 361454 0.1 1.185 12 0 0 0 0
4725	9862979 216 361454 361454 0.1 1.185 12 0 0 0 0
4726	9863195 216 361454 361454 0.1 1.185 12 0 0 0 0
4727	9863411 216 361454 361454 0.1 1.185 12 0 0 0 0
4728	9863627 216 361454 361454 0.1 1.185 12 0 0 0 0
4729	9863843 216 361454 361454 0.1 1.185 12 0 0 0 0
4730	9864059 216 361454 361454 0.1 1.185 12 0 0 0 0
4731	9864275 216 361454 361454 0.1 1.185 12 0 0 0 0
4732	9864491 216 361454 361454 0.1 1.185 12 0 0 0 0
4733	9864707 216 361454 361454 0.1 1.185 12 0 0 0 0
4734	9864923 216 361454 361454 0.1 1.185 12 0 0 0 0
4735	9865139 216 361454 361454 0.1 1.185 12 0 0 0 0
4736	9865355 216 361454 361454 0.1 1.185 12 0 0 0 0
4737	9865571 216 361454 361454 0.1 1.185 12 0 0 0 0
4738	9865787 216 361454 361454 0.1 1.185 12 0 0 0 0
4739	9866003 216 361454 361454 0.1 1.185 12 0 0 0 0
4740	9866219 216 361454 361454 0.1 1.185 12 0 0 0 0
4741	9866435 216 361454 361454 0.1 1.185 12 0 0 0 0
4742	9866651 216 361454 361454 0.1 1.185 12 0 0 0 0
4743	9866867 216 361454 361454 0.1 1.185 12 0 0 0 0
4744	9867083 216 361454 361454 0.1 1.185 12 0 0 0 0
4745	9867299 216 361454 361454 0.1 1.185 12 0 0 0 0
4746	9867515 216 361454 361454 0.1 1.185 12 0 0 0 0
4747	9867731 216 361454 361454 0.1 1.185 12 0 0 0 0
4748	9867947 216 361454 361454 0.1 1.185 12 0 0 0 0
4749	9868163 216 361454 361454 0.1 1.185 12 0 0 0 0
4750	9868379 216 361454 361454 0.1 1.185 12 0 0 0 0
4751	9868595 216 361454 361454 0.1 1.185 12 0 0 0 0
4752	9868811 216 361454 361454 0.1 1.185 12 0 0 0 0
4753	9869027 216 361454 361454 0.1 1.185 12 0 0 0 0
4754	9869243 216 361454 361454 0.1 1.185 12 0 0 0 0
4755	9869459 216 361454 361454 0.1 1.185 12 0 0 0 0
4756	9869675 216 361454 361454 0.1 1.185 12 0 0 0 0
4757	9869891 216 361454 361454 0.1 1.185 12 0 0 0 0
4758	9870107 216 361454 361454 0.1 1.185 12 0 0 0 0
4759	9870323 216 361454 361454 0.1 1.185 12 0 0 0 0
4760	9870539 216 361454 361454 0.1 1.185 12 0 0 0 0
4761	9870755 216 361454 361454 0.1 1.185 12 0 0 0 0
4762	9870971 216 361454 361454 0.1 1.185 12 0 0 0 0
4763	9871187 216 361454 361454 0.1 1.185 12 0 0 0 0
4764	9871403 216 361454 361454 0.1 1.185 12 0 0 0 0
4765	9871619 216 361454 361454 0.1 1.185 12 0 0 0 0
4766	9871835 216 361454 361454 0.1 1.185 12 0 0 0 0
4767	9872051 216 361454 361454 0.1 1.185 12 0 0 0 0
4768	9872267 216 361454 361454 0.1 1.185 12 0 0 0 0
4769	9872483 216 361454 361454 0.1 1.185 12 0 0 0 0
4770	9872699 216 361454 361454 0.1 1.185 12 0 0 0 0
4771	9872915 216 361454 361454 0.1 1.185 12 0 0 0 0
4772	9873131 216 361454 361454 0.1 1.185 12 0 0 0 0
4773	9873347 216 361454 361454 0.1 1.185 12 0 0 0 0
4774	9873563 216 361454 361454 0.1 1.185 12 0 0 0 0
4775	9873779 216 361454 361454 0.1 1.185 12 0 0 0 0
4776	9873995 216 361454 361454 0.1 1.185 12 0 0 0 0
4777	9874211 216 361454 361454 0.1 1.185 12 0 0 0 0
4778	9874427 216 361454 361454 0.1 1.185 12 0 0 0 0
4779	9874643 216 361454 361454 0.1 1.185 12 0 0 0 0
4780	9874859 216 361454 361454 0.1 1.185 12 0 0 0 0
4781	9875075 216 361454 361454 0.1 1.185 12 0 0 0 0
4782	9875291 216 361454 361454 0.1 1.185 12 0 0 0 0
4783	9875507 216 361454 361454 0.1 1.185 12 0 0 0 0
4784	9875723 216 361454 361454 0.1 1.185 12 0 0 0 0
4785	9875939 216 361454 361454 0.1 1.185 12 0 0 0 0
4786	9876155 216 361454 361454 0.1 1.185 12 0 0 0 0
4787	9876371 216 361454 361454 0.1 1.185 12 0 0 0 0
4788	9876587 216 361454 361454 0.1 1.185 12 0 0 0 0
4789	9876803 216 361454 361454 0.1 1.185 12 0 0 0 0
4790	9877019 216 361454 361454 0.1 1.185 12 0 0 0 0
4791	9877235 216 361454 361454 0.1 1.185 12 0 0 0 0
4792	9877451 216 361454 361454 0.1 1.185 12 0 0 0 0
4793	9877667 216 361454 361454 0.1 1.185 12 0 0 0 0
4794	9877883 216 361454 361454 0.1 1.185 12 0 0 0 0
4795	9878099 216 361454 361454 0.1 1.185 12 0 0 0 0
4796	9878315 216 361454 361454 0.1 1.185 12 0 0 0 0
4797	9878531 216 361454 361454 0.1 1.185 12 0 0 0 0
4798	9878747 216 361454 361454 0.1 1.185 12 0 0 0 0
4799	9878963 216 361454 361454 0.1 1.185 12 0 0 0 0
4800	9879179 216 361454 361454 0.1 1.185 12 0 0 0 0
4801	9879395 216 361454 361454 0.1 1.185 12 0 0 0 0
4802	9879611 216 361454 361454 0.1 1.185 12 0 0 0 0
4803	9879827 216 361454 361454 0.1 1.185 12 0 0 0 0
4804	9880043 216 361454 361454 0.1 1.185 12 0 0 0 0
4805	9880259 216 361454 361454 0.1 1.185 12 0 0 0 0
4806	9880475 216 361454 361454 0.1 1.185 12 0 0 0 0
4807	9880691 216 361454 361454 0.1 1.185 12 0 0 0 0
4808	9880907 216 361454 361454 0.1 1.185 12 0 0 0 0
4809	9881123 216 361454 361454 0.1 1.185 12 0 0 0 0
4810	9881339 216 361454 361454 0.1 1.185 12 0 0 0 0
4811	9881555 216 361454 361454 0.1 1.185 12 0 0 0 0
4812	9881771 216 361454 361454 0.1 1.185 12 0 0 0 0
4813	9881987 216 361454 361454 0.1 1.185 12 0 0 0 0
4814	9882203 216 361454 361454 0.1 1.185 12 0 0 0 0
4815	9882419 216 361454 361454 0.1 1.185 12 0 0 0 0
4816	9882635 216 361454 361454 0.1 1.185 12 0 0 0 0
4817	9882851 216 361454 361454 0.1 1.185 12 0 0 0 0
4818	9883067 216 361454 361454 0.1 1.185 12 0 0 0 0
4819	9883283 216 361454 361454 0.1 1.185 12 0 0 0 0
4820	9883499 216 361454 361454 0.1 1.185 12 0 0 0 0
4821	9883715 216 361454 361454 0.1 1.185 12 0 0 0 0
4822	9883931 216 361454 361454 0.1 1.185 12 0 0 0 0
4823	9884147 216 361454 361454 0.1 1.185 12 0 0 0 0
4824	9884363 216 361454 361454 0.1 1.185 12 0 0 0 0
4825	9884579 216 361454 361454 0.1 1.185 12 0 0 0 0
4826	9884795 216 361454 361454 0.1 1.185 12 0 0 0 0
4827	9885011 216 361454 361454 0.1 1.185 12 0 0 0 0
4828	9885227 216 361454 361454 0.1 1.185 12 0 0 0 0
4829	9885443 216 361454 361454 0.1 1.185 12 0 0 0 0
4830	9885659 216 361454 361454 0.1 1.185 12 0 0 0 0
4831	9885875 216 361454 361454 0.1 1.185 12 0 0 0 0
4832	9886091 216 361454 361454 0.1 1.185 12 0 0 0 0
4833	9886307 216 361454 361454 0.1 1.185 12 0 0 0 0
4834	9886523 216 361454 361454 0.1 1.185 12 0 0 0 0
4835	9886739 216 361454 361454 0.1 1.185 12 0 0 0 0
4836	9886955 216 361454 361454 0.1 1.185 12 0 0 0 0
4837	9887171 216 361454 361454 0.1 1.185 12 0 0 0 0
4838	9887387 216 361454 361454 0.1 1.185 12 0 0 0 0
4839	9887603 216 361454 361454 0.1 1.185 12 0 0 0 0
4840	9887819 216 361454 361454 0.1 1.185 12 0 0 0 0
4841	9888035 216 361454 361454 0.1 1.185 12 0 0 0 0
4842	9888251 216 361454 361454 0.1 1.185 12 0 0 0 0
4843	9888467 216 361454 361454 0.1 1.185 12 0 0 0 0
4844	9888683 216 361454 361454 0.1 1.185 12 0 0 0 0
4845	9888899 216 361454 361454 0.1 1.185 12 0 0 0 0
4846	9889115 216 361454 361454 0.1 1.185 12 0 0 0 0
4847	9889331 216 361454 361454 0.1 1.185 12 0 0 0 0
4848	9889547 216 361454 361454 0.1 1.185 12 0 0 0 0
4849	9889763 216 361454 361454 0.1 1.185 12 0 0 0 0
4850	9889979 216 361454 361454 0.1 1.185 12 0 0 0 0
4851	9890195 216 361454 361454 0.1 1.185 12 0 0 0 0
4852	9890411 216 361454 361454 0.1 1.185 12 0 0 0 0
4853	9890627 216 361454 361454 0.1 1.185 12 0 0 0 0
4854	9890843 216 361454 361454 0.1 1.185 12 0 0 0 0
4855	9891059 216 361454 361454 0.1 1.185 12 0 0 0 0
4856	9891275 216 361454 361454 0.1 1.185 12 0 0 0 0
4857	9891491 216 361454 361454 0.1 1.185 12 0 0 0 0
4858	9891707 216 361454 361454 0.1 1.185 12 0 0 0 0
4859	9891923 216 361454 361454 0.1 1.185 12 0 0 0 0
4860	9892139 216 361454 361454 0.1 1.185 12 0 0 0 0
4861	9892355 216 361454 361454 0.1 1.185 12 0 0 0 0
4862	9892571 216 361454 361454 0.1 1.185 12 0 0 0 0
4863	9892787 216 361454 361454 0.1 1.185 12 0 0 0 0
4864	9893003 216 361454 361454 0.1 1.185 12 0 0 0 0
4865	9893219 216 361454 361454 0.1 1.185 12 0 0 0 0
4866	9893435 216 361454 361454 0.1 1.185 12 0 0 0 0
4867	9893651 216 361454 361454 0.1 1.185 12 0 0 0 0
4868	9893867 216 361454 361454 0.1 1.185 12 0 0 0 0
4869	9894083 216 361454 361454 0.1 1.185 12 0 0 0 0
4870	9894299 216 361454 361454 0.1 1.185 12 0 0 0 0
4871	9894515 216 361454 361454 0.1 1.185 12 0 0 0 0
4872	9894731 216 361454 361454 0.1 1.185 12 0 0 0 0
4873	9894947 216 361454 361454 0.1 1.185 12 0 0 0 0
4874	9895163 216 361454 361454 0.1 1.185 12 0 0 0 0
4875	9895379 216 361454 361454 0.1 1.185 12 0 0 0 0
4876	9895595 216 361454 361454 0.1 1.185 12 0 0 0 0
4877	9895811 216 361454 361454 0.1 1.185 12 0 0 0 0
4878	9896027 216 361454 361454 0.1 1.185 12 0 0 0 0
4879	9896243 216 361454 361454 0.1 1.185 12 0 0 0 0
4880	9896459 216 361454 361454 0.1 1.185 12 0 0 0 0
4881	9896675 216 361454 361454 0.1 1.185 12 0 0 0 0
4882	9896891 216 361454 361454 0.1 1.185 12 0 0 0 0

