file 831546 1709174721                                          
version 3
run General-0-20240229-03:45:13-4779
attr configname General
attr datetime 20240229-03:45:13
attr datetimef 20240229-034513
attr experiment General
attr inifile omnetpp.ini
attr iterationvars ""
attr iterationvarsd ""
attr iterationvarsf ""
attr measurement ""
attr network TrainTopology
attr processid 4779
attr repetition 0
attr replication #0
attr resultdir results
attr runnumber 0
attr seedset 0
config image-path ../../inet4.5/images:../../simu5G/images
config network TrainTopology
config *.gnb*.numX2Apps 1
config *.gnb*.x2App[*].server.localPort "5000 + ancestorIndex(1)"
config *.gnb1.x2App[0].client.connectAddress "\"gnb2%x2ppp0\""
config *.gnb2.x2App[0].client.connectAddress "\"gnb1%x2ppp0\""
config *.server.ipv4.routingTable.routingFile "\"server.mrt\""
config *.*.dstt.destAddress "\"server\""
config *.*Ue[0].masterId 0
config *.*Ue[0].nrMacCellId 1
config *.*Ue[0].nrMasterId 1
config *.*Ue[1].masterId 0
config *.*Ue[1].nrMacCellId 1
config *.*Ue[1].nrMasterId 1
config *.*Ue[2].masterId 0
config *.*Ue[2].nrMacCellId 1
config *.*Ue[2].nrMasterId 2
config *.*Ue[3].masterId 0
config *.*Ue[3].nrMacCellId 1
config *.*Ue[3].nrMasterId 2
config *.carrierAggregation.numComponentCarriers 1
config *.carrierAggregation.componentCarrier[0].numerologyIndex 0
config *.carrierAggregation.componentCarrier[0].carrierFrequency 2GHz
config *.carrierAggregation.componentCarrier[0].numBands 1
config *.gnb*.cellularNic.numCarriers 1
config *.gnb*.cellularNic.channelModel[0].componentCarrierIndex 0
config *.*Ue[*].cellularNic.numCarriers 1
config *.*Ue[*].cellularNic.nrChannelModel[0].componentCarrierIndex 0
config *.T*Client*.numApps 1
config *.T*Client*.app[*].typename UdpApp
config *.T*Client*.app[0].display-name besteffort
config *.T*Client*.app[*].io.destAddress "\"server\""
config *.T*Client*.app[0].io.destPort 1000
config *.T*Client*.app[0].io.localPort 1000
config *.T*Client*.app[0].source.packetLength 1B
config *.T*Client*.app[0].source.productionInterval 10ms
config *.T*Client*.app[*].source.initialProductionOffset "uniform(10ms, 50ms)"
config *.B*Client*.numApps 1
config *.B*Client*.app[*].typename UdpApp
config *.B*Client*.app[0].display-name video
config *.B*Client*.app[*].io.destAddress "\"server\""
config *.B*Client*.app[0].io.destPort 1001
config *.B*Client*.app[0].io.localPort 1000
config *.B*Client*.app[0].source.packetLength 2B
config *.B*Client*.app[0].source.productionInterval 30ms
config *.B*Client*.app[*].source.initialProductionOffset "uniform(10ms, 50ms)"
config *.server.numApps 2
config *.server.app[*].typename UdpEchoApp
config *.server.app[0].display-name besteffort
config *.server.app[1].display-name video
config *.server.app[0].localPort 1000
config *.server.app[1].localPort 1001
config *.*.hasOutgoingStreams true
config *.*.hasIncomingStreams true
config *.*Client*.bridging.streamIdentifier.identifier.mapping "[{stream: \"besteffort\", packetFilter: expr(udp.destPort == 1000)},\n\t\t\t\t\t\t\t\t\t\t\t\t\t\t\t{stream: \"video\", packetFilter: expr(udp.destPort == 1001)}]"
config *.*Client*.bridging.streamCoder.encoder.mapping "[{stream: \"besteffort\", pcp: 0},\n\t\t\t\t\t\t\t\t\t\t\t\t\t{stream: \"video\", pcp: 4}]"
config *.server.bridging.streamIdentifier.identifier.mapping "[{stream: \"besteffort\", packetFilter: expr(udp.destPort == 1000)},\n\t\t\t\t\t\t\t\t\t\t\t\t\t\t\t{stream: \"video\", packetFilter: expr(udp.destPort == 1001)}]"
config *.server.bridging.streamCoder.encoder.mapping "[{stream: \"besteffort\", pcp: 0},\n\t\t\t\t\t\t\t\t\t\t\t\t\t{stream: \"video\", pcp: 4}]"
config *.switch*.bridging.streamCoder.decoder.mapping "[{pcp: 0, stream: \"besteffort\"},\n                                                 {pcp: 4, stream: \"video\"}]"
config *.switch*.bridging.streamCoder.encoder.mapping "[{stream: \"besteffort\", pcp: 0},\n\t\t\t\t\t\t\t\t\t\t\t\t\t{stream: \"video\", pcp: 4}]"
config *.switch*.hasIngressTrafficFiltering true
config *.switch*.bridging.streamFilter.ingress.typename SimpleIeee8021qFilter
config *.switch*.bridging.streamFilter.ingress.numStreams 2
config *.switch*.bridging.streamFilter.ingress.classifier.mapping "{besteffort: 0, video: 1}"
config *.switch*.bridging.streamFilter.ingress.*[0].display-name besteffort
config *.switch*.bridging.streamFilter.ingress.*[1].display-name video
config *.switch*.bridging.streamFilter.ingress.meter[*].typename EligibilityTimeMeter
config *.switch*.bridging.streamFilter.ingress.meter[*].committedInformationRate 20Mbps
config *.switch*.bridging.streamFilter.ingress.meter[*].committedBurstSize 10kB
config *.switch*.bridging.streamFilter.ingress.filter[*].typename EligibilityTimeFilter
config *.switch*.hasEgressTrafficShaping true
config *.switch*.bridging.directionReverser.reverser.excludeEncapsulationProtocols "[\"ieee8021qctag\"]"
config *.switch*.eth[*].macLayer.queue.numTrafficClasses 2
config *.switch*.eth[*].macLayer.queue.*[0].display-name besteffort
config *.switch*.eth[*].macLayer.queue.*[1].display-name video
config *.switch*.eth[*].macLayer.queue.queue[0].typename EligibilityTimeQueue
config *.switch*.eth[*].macLayer.queue.queue[1].typename EligibilityTimeQueue
config *.switch*.eth[*].macLayer.queue.transmissionSelectionAlgorithm[0].typename Ieee8021qAsynchronousShaper
config *.switch*.eth[*].macLayer.queue.transmissionSelectionAlgorithm[0].idleSlope 42.68Mbps
config *.switch*.eth[*].macLayer.queue.transmissionSelectionAlgorithm[1].typename Ieee8021qAsynchronousShaper
config *.switch*.eth[*].macLayer.queue.transmissionSelectionAlgorithm[1].idleSlope 21.34Mbps

vector 0 TrainTopology.server.eth[0].phyLayer.interFrameGapInserter interpacketGap:vector ETV
attr interpolationmode sample-hold
attr recordingmode vector
attr source "count(interpacketGapStarted) - count(interpacketGapEnded)"
attr title "interpacket gap state"
attr type int
vector 1 TrainTopology.server.eth[0].phyLayer.transmitter transmitting:vector ETV
attr interpolationmode sample-hold
attr recordingmode vector
attr source "count(transmissionStarted) - count(transmissionEnded)"
attr title "transmitting state"
attr type int
vector 2 TrainTopology.server.udp passedUpPk:vector(count) ETV
attr interpolationmode none
attr recordingmode vector(count)
attr source packetSentToUpper
attr title "packets passed up, count"
vector 3 TrainTopology.server.udp droppedPkWrongPort:vector(count) ETV
attr interpolationmode none
attr recordingmode vector(count)
attr source packetDropReasonIsNoPortFound(packetDropped)
attr title "packets dropped (wrong port), count"
vector 4 TrainTopology.server.udp droppedPkBadChecksum:vector(count) ETV
attr interpolationmode none
attr recordingmode vector(count)
attr source packetDropReasonIsIncorrectlyReceived(packetDropped)
attr title "packets dropped (checksum error), count"
vector 5 TrainTopology.switch1.eth[0].phyLayer.interFrameGapInserter interpacketGap:vector ETV
attr interpolationmode sample-hold
attr recordingmode vector
attr source "count(interpacketGapStarted) - count(interpacketGapEnded)"
attr title "interpacket gap state"
attr type int
vector 6 TrainTopology.switch1.eth[0].phyLayer.transmitter transmitting:vector ETV
attr interpolationmode sample-hold
attr recordingmode vector
attr source "count(transmissionStarted) - count(transmissionEnded)"
attr title "transmitting state"
attr type int
vector 7 TrainTopology.switch1.eth[1].phyLayer.interFrameGapInserter interpacketGap:vector ETV
attr interpolationmode sample-hold
attr recordingmode vector
attr source "count(interpacketGapStarted) - count(interpacketGapEnded)"
attr title "interpacket gap state"
attr type int
vector 8 TrainTopology.switch1.eth[1].phyLayer.transmitter transmitting:vector ETV
attr interpolationmode sample-hold
attr recordingmode vector
attr source "count(transmissionStarted) - count(transmissionEnded)"
attr title "transmitting state"
attr type int
vector 9 TrainTopology.switch2.eth[0].phyLayer.interFrameGapInserter interpacketGap:vector ETV
attr interpolationmode sample-hold
attr recordingmode vector
attr source "count(interpacketGapStarted) - count(interpacketGapEnded)"
attr title "interpacket gap state"
attr type int
vector 10 TrainTopology.switch2.eth[0].phyLayer.transmitter transmitting:vector ETV
attr interpolationmode sample-hold
attr recordingmode vector
attr source "count(transmissionStarted) - count(transmissionEnded)"
attr title "transmitting state"
attr type int
vector 11 TrainTopology.switch2.eth[1].phyLayer.interFrameGapInserter interpacketGap:vector ETV
attr interpolationmode sample-hold
attr recordingmode vector
attr source "count(interpacketGapStarted) - count(interpacketGapEnded)"
attr title "interpacket gap state"
attr type int
vector 12 TrainTopology.switch2.eth[1].phyLayer.transmitter transmitting:vector ETV
attr interpolationmode sample-hold
attr recordingmode vector
attr source "count(transmissionStarted) - count(transmissionEnded)"
attr title "transmitting state"
attr type int
vector 13 TrainTopology.switch3.eth[0].phyLayer.interFrameGapInserter interpacketGap:vector ETV
attr interpolationmode sample-hold
attr recordingmode vector
attr source "count(interpacketGapStarted) - count(interpacketGapEnded)"
attr title "interpacket gap state"
attr type int
vector 14 TrainTopology.switch3.eth[0].phyLayer.transmitter transmitting:vector ETV
attr interpolationmode sample-hold
attr recordingmode vector
attr source "count(transmissionStarted) - count(transmissionEnded)"
attr title "transmitting state"
attr type int
vector 15 TrainTopology.switch3.eth[1].phyLayer.interFrameGapInserter interpacketGap:vector ETV
attr interpolationmode sample-hold
attr recordingmode vector
attr source "count(interpacketGapStarted) - count(interpacketGapEnded)"
attr title "interpacket gap state"
attr type int
vector 16 TrainTopology.switch3.eth[1].phyLayer.transmitter transmitting:vector ETV
attr interpolationmode sample-hold
attr recordingmode vector
attr source "count(transmissionStarted) - count(transmissionEnded)"
attr title "transmitting state"
attr type int
vector 17 TrainTopology.switch3.eth[2].phyLayer.interFrameGapInserter interpacketGap:vector ETV
attr interpolationmode sample-hold
attr recordingmode vector
attr source "count(interpacketGapStarted) - count(interpacketGapEnded)"
attr title "interpacket gap state"
attr type int
vector 18 TrainTopology.switch3.eth[2].phyLayer.transmitter transmitting:vector ETV
attr interpolationmode sample-hold
attr recordingmode vector
attr source "count(transmissionStarted) - count(transmissionEnded)"
attr title "transmitting state"
attr type int
vector 19 TrainTopology.upf1.ppp[0].ppp transmissionState:vector ETV
attr interpolationmode sample-hold
attr recordingmode vector
attr source transmissionStateChanged
attr title "tx state"
vector 20 TrainTopology.upf1.udp passedUpPk:vector(count) ETV
attr interpolationmode none
attr recordingmode vector(count)
attr source packetSentToUpper
attr title "packets passed up, count"
vector 21 TrainTopology.upf1.udp droppedPkWrongPort:vector(count) ETV
attr interpolationmode none
attr recordingmode vector(count)
attr source packetDropReasonIsNoPortFound(packetDropped)
attr title "packets dropped (wrong port), count"
vector 22 TrainTopology.upf1.udp droppedPkBadChecksum:vector(count) ETV
attr interpolationmode none
attr recordingmode vector(count)
attr source packetDropReasonIsIncorrectlyReceived(packetDropped)
attr title "packets dropped (checksum error), count"
vector 23 TrainTopology.upf2.ppp[0].ppp transmissionState:vector ETV
attr interpolationmode sample-hold
attr recordingmode vector
attr source transmissionStateChanged
attr title "tx state"
vector 24 TrainTopology.upf2.udp passedUpPk:vector(count) ETV
attr interpolationmode none
attr recordingmode vector(count)
attr source packetSentToUpper
attr title "packets passed up, count"
vector 25 TrainTopology.upf2.udp droppedPkWrongPort:vector(count) ETV
attr interpolationmode none
attr recordingmode vector(count)
attr source packetDropReasonIsNoPortFound(packetDropped)
attr title "packets dropped (wrong port), count"
vector 26 TrainTopology.upf2.udp droppedPkBadChecksum:vector(count) ETV
attr interpolationmode none
attr recordingmode vector(count)
attr source packetDropReasonIsIncorrectlyReceived(packetDropped)
attr title "packets dropped (checksum error), count"
vector 27 TrainTopology.gnb1.pppIf.ppp transmissionState:vector ETV
attr interpolationmode sample-hold
attr recordingmode vector
attr source transmissionStateChanged
attr title "tx state"
vector 28 TrainTopology.gnb1.x2ppp[0].ppp transmissionState:vector ETV
attr interpolationmode sample-hold
attr recordingmode vector
attr source transmissionStateChanged
attr title "tx state"
vector 29 TrainTopology.gnb1.pppMEHostIf.ppp transmissionState:vector ETV
attr interpolationmode sample-hold
attr recordingmode vector
attr source transmissionStateChanged
attr title "tx state"
vector 30 TrainTopology.gnb1.udp passedUpPk:vector(count) ETV
attr interpolationmode none
attr recordingmode vector(count)
attr source packetSentToUpper
attr title "packets passed up, count"
vector 31 TrainTopology.gnb1.udp droppedPkWrongPort:vector(count) ETV
attr interpolationmode none
attr recordingmode vector(count)
attr source packetDropReasonIsNoPortFound(packetDropped)
attr title "packets dropped (wrong port), count"
vector 32 TrainTopology.gnb1.udp droppedPkBadChecksum:vector(count) ETV
attr interpolationmode none
attr recordingmode vector(count)
attr source packetDropReasonIsIncorrectlyReceived(packetDropped)
attr title "packets dropped (checksum error), count"
vector 33 TrainTopology.gnb2.pppIf.ppp transmissionState:vector ETV
attr interpolationmode sample-hold
attr recordingmode vector
attr source transmissionStateChanged
attr title "tx state"
vector 34 TrainTopology.gnb2.x2ppp[0].ppp transmissionState:vector ETV
attr interpolationmode sample-hold
attr recordingmode vector
attr source transmissionStateChanged
attr title "tx state"
vector 35 TrainTopology.gnb2.pppMEHostIf.ppp transmissionState:vector ETV
attr interpolationmode sample-hold
attr recordingmode vector
attr source transmissionStateChanged
attr title "tx state"
vector 36 TrainTopology.gnb2.udp passedUpPk:vector(count) ETV
attr interpolationmode none
attr recordingmode vector(count)
attr source packetSentToUpper
attr title "packets passed up, count"
vector 37 TrainTopology.gnb2.udp droppedPkWrongPort:vector(count) ETV
attr interpolationmode none
attr recordingmode vector(count)
attr source packetDropReasonIsNoPortFound(packetDropped)
attr title "packets dropped (wrong port), count"
vector 38 TrainTopology.gnb2.udp droppedPkBadChecksum:vector(count) ETV
attr interpolationmode none
attr recordingmode vector(count)
attr source packetDropReasonIsIncorrectlyReceived(packetDropped)
attr title "packets dropped (checksum error), count"
vector 39 TrainTopology.TCUClient[0].eth[0].phyLayer.interFrameGapInserter interpacketGap:vector ETV
attr interpolationmode sample-hold
attr recordingmode vector
attr source "count(interpacketGapStarted) - count(interpacketGapEnded)"
attr title "interpacket gap state"
attr type int
vector 40 TrainTopology.TCUClient[0].eth[0].phyLayer.transmitter transmitting:vector ETV
attr interpolationmode sample-hold
attr recordingmode vector
attr source "count(transmissionStarted) - count(transmissionEnded)"
attr title "transmitting state"
attr type int
vector 41 TrainTopology.TCUClient[0].udp passedUpPk:vector(count) ETV
attr interpolationmode none
attr recordingmode vector(count)
attr source packetSentToUpper
attr title "packets passed up, count"
vector 42 TrainTopology.TCUClient[0].udp droppedPkWrongPort:vector(count) ETV
attr interpolationmode none
attr recordingmode vector(count)
attr source packetDropReasonIsNoPortFound(packetDropped)
attr title "packets dropped (wrong port), count"
vector 43 TrainTopology.TCUClient[0].udp droppedPkBadChecksum:vector(count) ETV
attr interpolationmode none
attr recordingmode vector(count)
attr source packetDropReasonIsIncorrectlyReceived(packetDropped)
attr title "packets dropped (checksum error), count"
vector 44 TrainTopology.TCUClient[1].eth[0].phyLayer.interFrameGapInserter interpacketGap:vector ETV
attr interpolationmode sample-hold
attr recordingmode vector
attr source "count(interpacketGapStarted) - count(interpacketGapEnded)"
attr title "interpacket gap state"
attr type int
vector 45 TrainTopology.TCUClient[1].eth[0].phyLayer.transmitter transmitting:vector ETV
attr interpolationmode sample-hold
attr recordingmode vector
attr source "count(transmissionStarted) - count(transmissionEnded)"
attr title "transmitting state"
attr type int
vector 46 TrainTopology.TCUClient[1].udp passedUpPk:vector(count) ETV
attr interpolationmode none
attr recordingmode vector(count)
attr source packetSentToUpper
attr title "packets passed up, count"
vector 47 TrainTopology.TCUClient[1].udp droppedPkWrongPort:vector(count) ETV
attr interpolationmode none
attr recordingmode vector(count)
attr source packetDropReasonIsNoPortFound(packetDropped)
attr title "packets dropped (wrong port), count"
vector 48 TrainTopology.TCUClient[1].udp droppedPkBadChecksum:vector(count) ETV
attr interpolationmode none
attr recordingmode vector(count)
attr source packetDropReasonIsIncorrectlyReceived(packetDropped)
attr title "packets dropped (checksum error), count"
vector 49 TrainTopology.TCUClient[2].eth[0].phyLayer.interFrameGapInserter interpacketGap:vector ETV
attr interpolationmode sample-hold
attr recordingmode vector
attr source "count(interpacketGapStarted) - count(interpacketGapEnded)"
attr title "interpacket gap state"
attr type int
vector 50 TrainTopology.TCUClient[2].eth[0].phyLayer.transmitter transmitting:vector ETV
attr interpolationmode sample-hold
attr recordingmode vector
attr source "count(transmissionStarted) - count(transmissionEnded)"
attr title "transmitting state"
attr type int
vector 51 TrainTopology.TCUClient[2].udp passedUpPk:vector(count) ETV
attr interpolationmode none
attr recordingmode vector(count)
attr source packetSentToUpper
attr title "packets passed up, count"
vector 52 TrainTopology.TCUClient[2].udp droppedPkWrongPort:vector(count) ETV
attr interpolationmode none
attr recordingmode vector(count)
attr source packetDropReasonIsNoPortFound(packetDropped)
attr title "packets dropped (wrong port), count"
vector 53 TrainTopology.TCUClient[2].udp droppedPkBadChecksum:vector(count) ETV
attr interpolationmode none
attr recordingmode vector(count)
attr source packetDropReasonIsIncorrectlyReceived(packetDropped)
attr title "packets dropped (checksum error), count"
vector 54 TrainTopology.TCUClient[3].eth[0].phyLayer.interFrameGapInserter interpacketGap:vector ETV
attr interpolationmode sample-hold
attr recordingmode vector
attr source "count(interpacketGapStarted) - count(interpacketGapEnded)"
attr title "interpacket gap state"
attr type int
vector 55 TrainTopology.TCUClient[3].eth[0].phyLayer.transmitter transmitting:vector ETV
attr interpolationmode sample-hold
attr recordingmode vector
attr source "count(transmissionStarted) - count(transmissionEnded)"
attr title "transmitting state"
attr type int
vector 56 TrainTopology.TCUClient[3].udp passedUpPk:vector(count) ETV
attr interpolationmode none
attr recordingmode vector(count)
attr source packetSentToUpper
attr title "packets passed up, count"
vector 57 TrainTopology.TCUClient[3].udp droppedPkWrongPort:vector(count) ETV
attr interpolationmode none
attr recordingmode vector(count)
attr source packetDropReasonIsNoPortFound(packetDropped)
attr title "packets dropped (wrong port), count"
vector 58 TrainTopology.TCUClient[3].udp droppedPkBadChecksum:vector(count) ETV
attr interpolationmode none
attr recordingmode vector(count)
attr source packetDropReasonIsIncorrectlyReceived(packetDropped)
attr title "packets dropped (checksum error), count"
vector 59 TrainTopology.TCUUe[0].udp passedUpPk:vector(count) ETV
attr interpolationmode none
attr recordingmode vector(count)
attr source packetSentToUpper
attr title "packets passed up, count"
vector 60 TrainTopology.TCUUe[0].udp droppedPkWrongPort:vector(count) ETV
attr interpolationmode none
attr recordingmode vector(count)
attr source packetDropReasonIsNoPortFound(packetDropped)
attr title "packets dropped (wrong port), count"
vector 61 TrainTopology.TCUUe[0].udp droppedPkBadChecksum:vector(count) ETV
attr interpolationmode none
attr recordingmode vector(count)
attr source packetDropReasonIsIncorrectlyReceived(packetDropped)
attr title "packets dropped (checksum error), count"
vector 62 TrainTopology.TCUUe[1].udp passedUpPk:vector(count) ETV
attr interpolationmode none
attr recordingmode vector(count)
attr source packetSentToUpper
attr title "packets passed up, count"
vector 63 TrainTopology.TCUUe[1].udp droppedPkWrongPort:vector(count) ETV
attr interpolationmode none
attr recordingmode vector(count)
attr source packetDropReasonIsNoPortFound(packetDropped)
attr title "packets dropped (wrong port), count"
vector 64 TrainTopology.TCUUe[1].udp droppedPkBadChecksum:vector(count) ETV
attr interpolationmode none
attr recordingmode vector(count)
attr source packetDropReasonIsIncorrectlyReceived(packetDropped)
attr title "packets dropped (checksum error), count"
vector 65 TrainTopology.TCUUe[2].udp passedUpPk:vector(count) ETV
attr interpolationmode none
attr recordingmode vector(count)
attr source packetSentToUpper
attr title "packets passed up, count"
vector 66 TrainTopology.TCUUe[2].udp droppedPkWrongPort:vector(count) ETV
attr interpolationmode none
attr recordingmode vector(count)
attr source packetDropReasonIsNoPortFound(packetDropped)
attr title "packets dropped (wrong port), count"
vector 67 TrainTopology.TCUUe[2].udp droppedPkBadChecksum:vector(count) ETV
attr interpolationmode none
attr recordingmode vector(count)
attr source packetDropReasonIsIncorrectlyReceived(packetDropped)
attr title "packets dropped (checksum error), count"
vector 68 TrainTopology.TCUUe[3].udp passedUpPk:vector(count) ETV
attr interpolationmode none
attr recordingmode vector(count)
attr source packetSentToUpper
attr title "packets passed up, count"
vector 69 TrainTopology.TCUUe[3].udp droppedPkWrongPort:vector(count) ETV
attr interpolationmode none
attr recordingmode vector(count)
attr source packetDropReasonIsNoPortFound(packetDropped)
attr title "packets dropped (wrong port), count"
vector 70 TrainTopology.TCUUe[3].udp droppedPkBadChecksum:vector(count) ETV
attr interpolationmode none
attr recordingmode vector(count)
attr source packetDropReasonIsIncorrectlyReceived(packetDropped)
attr title "packets dropped (checksum error), count"
vector 71 TrainTopology.BCUClient[0].eth[0].phyLayer.interFrameGapInserter interpacketGap:vector ETV
attr interpolationmode sample-hold
attr recordingmode vector
attr source "count(interpacketGapStarted) - count(interpacketGapEnded)"
attr title "interpacket gap state"
attr type int
vector 72 TrainTopology.BCUClient[0].eth[0].phyLayer.transmitter transmitting:vector ETV
attr interpolationmode sample-hold
attr recordingmode vector
attr source "count(transmissionStarted) - count(transmissionEnded)"
attr title "transmitting state"
attr type int
vector 73 TrainTopology.BCUClient[0].udp passedUpPk:vector(count) ETV
attr interpolationmode none
attr recordingmode vector(count)
attr source packetSentToUpper
attr title "packets passed up, count"
vector 74 TrainTopology.BCUClient[0].udp droppedPkWrongPort:vector(count) ETV
attr interpolationmode none
attr recordingmode vector(count)
attr source packetDropReasonIsNoPortFound(packetDropped)
attr title "packets dropped (wrong port), count"
vector 75 TrainTopology.BCUClient[0].udp droppedPkBadChecksum:vector(count) ETV
attr interpolationmode none
attr recordingmode vector(count)
attr source packetDropReasonIsIncorrectlyReceived(packetDropped)
attr title "packets dropped (checksum error), count"
vector 76 TrainTopology.BCUClient[1].eth[0].phyLayer.interFrameGapInserter interpacketGap:vector ETV
attr interpolationmode sample-hold
attr recordingmode vector
attr source "count(interpacketGapStarted) - count(interpacketGapEnded)"
attr title "interpacket gap state"
attr type int
vector 77 TrainTopology.BCUClient[1].eth[0].phyLayer.transmitter transmitting:vector ETV
attr interpolationmode sample-hold
attr recordingmode vector
attr source "count(transmissionStarted) - count(transmissionEnded)"
attr title "transmitting state"
attr type int
vector 78 TrainTopology.BCUClient[1].udp passedUpPk:vector(count) ETV
attr interpolationmode none
attr recordingmode vector(count)
attr source packetSentToUpper
attr title "packets passed up, count"
vector 79 TrainTopology.BCUClient[1].udp droppedPkWrongPort:vector(count) ETV
attr interpolationmode none
attr recordingmode vector(count)
attr source packetDropReasonIsNoPortFound(packetDropped)
attr title "packets dropped (wrong port), count"
vector 80 TrainTopology.BCUClient[1].udp droppedPkBadChecksum:vector(count) ETV
attr interpolationmode none
attr recordingmode vector(count)
attr source packetDropReasonIsIncorrectlyReceived(packetDropped)
attr title "packets dropped (checksum error), count"
vector 81 TrainTopology.BCUClient[2].eth[0].phyLayer.interFrameGapInserter interpacketGap:vector ETV
attr interpolationmode sample-hold
attr recordingmode vector
attr source "count(interpacketGapStarted) - count(interpacketGapEnded)"
attr title "interpacket gap state"
attr type int
vector 82 TrainTopology.BCUClient[2].eth[0].phyLayer.transmitter transmitting:vector ETV
attr interpolationmode sample-hold
attr recordingmode vector
attr source "count(transmissionStarted) - count(transmissionEnded)"
attr title "transmitting state"
attr type int
vector 83 TrainTopology.BCUClient[2].udp passedUpPk:vector(count) ETV
attr interpolationmode none
attr recordingmode vector(count)
attr source packetSentToUpper
attr title "packets passed up, count"
vector 84 TrainTopology.BCUClient[2].udp droppedPkWrongPort:vector(count) ETV
attr interpolationmode none
attr recordingmode vector(count)
attr source packetDropReasonIsNoPortFound(packetDropped)
attr title "packets dropped (wrong port), count"
vector 85 TrainTopology.BCUClient[2].udp droppedPkBadChecksum:vector(count) ETV
attr interpolationmode none
attr recordingmode vector(count)
attr source packetDropReasonIsIncorrectlyReceived(packetDropped)
attr title "packets dropped (checksum error), count"
vector 86 TrainTopology.BCUClient[3].eth[0].phyLayer.interFrameGapInserter interpacketGap:vector ETV
attr interpolationmode sample-hold
attr recordingmode vector
attr source "count(interpacketGapStarted) - count(interpacketGapEnded)"
attr title "interpacket gap state"
attr type int
vector 87 TrainTopology.BCUClient[3].eth[0].phyLayer.transmitter transmitting:vector ETV
attr interpolationmode sample-hold
attr recordingmode vector
attr source "count(transmissionStarted) - count(transmissionEnded)"
attr title "transmitting state"
attr type int
vector 88 TrainTopology.BCUClient[3].udp passedUpPk:vector(count) ETV
attr interpolationmode none
attr recordingmode vector(count)
attr source packetSentToUpper
attr title "packets passed up, count"
vector 89 TrainTopology.BCUClient[3].udp droppedPkWrongPort:vector(count) ETV
attr interpolationmode none
attr recordingmode vector(count)
attr source packetDropReasonIsNoPortFound(packetDropped)
attr title "packets dropped (wrong port), count"
vector 90 TrainTopology.BCUClient[3].udp droppedPkBadChecksum:vector(count) ETV
attr interpolationmode none
attr recordingmode vector(count)
attr source packetDropReasonIsIncorrectlyReceived(packetDropped)
attr title "packets dropped (checksum error), count"
vector 91 TrainTopology.BCUUe[0].udp passedUpPk:vector(count) ETV
attr interpolationmode none
attr recordingmode vector(count)
attr source packetSentToUpper
attr title "packets passed up, count"
vector 92 TrainTopology.BCUUe[0].udp droppedPkWrongPort:vector(count) ETV
attr interpolationmode none
attr recordingmode vector(count)
attr source packetDropReasonIsNoPortFound(packetDropped)
attr title "packets dropped (wrong port), count"
vector 93 TrainTopology.BCUUe[0].udp droppedPkBadChecksum:vector(count) ETV
attr interpolationmode none
attr recordingmode vector(count)
attr source packetDropReasonIsIncorrectlyReceived(packetDropped)
attr title "packets dropped (checksum error), count"
vector 94 TrainTopology.BCUUe[1].udp passedUpPk:vector(count) ETV
attr interpolationmode none
attr recordingmode vector(count)
attr source packetSentToUpper
attr title "packets passed up, count"
vector 95 TrainTopology.BCUUe[1].udp droppedPkWrongPort:vector(count) ETV
attr interpolationmode none
attr recordingmode vector(count)
attr source packetDropReasonIsNoPortFound(packetDropped)
attr title "packets dropped (wrong port), count"
vector 96 TrainTopology.BCUUe[1].udp droppedPkBadChecksum:vector(count) ETV
attr interpolationmode none
attr recordingmode vector(count)
attr source packetDropReasonIsIncorrectlyReceived(packetDropped)
attr title "packets dropped (checksum error), count"
vector 97 TrainTopology.BCUUe[2].udp passedUpPk:vector(count) ETV
attr interpolationmode none
attr recordingmode vector(count)
attr source packetSentToUpper
attr title "packets passed up, count"
vector 98 TrainTopology.BCUUe[2].udp droppedPkWrongPort:vector(count) ETV
attr interpolationmode none
attr recordingmode vector(count)
attr source packetDropReasonIsNoPortFound(packetDropped)
attr title "packets dropped (wrong port), count"
vector 99 TrainTopology.BCUUe[2].udp droppedPkBadChecksum:vector(count) ETV
attr interpolationmode none
attr recordingmode vector(count)
attr source packetDropReasonIsIncorrectlyReceived(packetDropped)
attr title "packets dropped (checksum error), count"
vector 100 TrainTopology.BCUUe[3].udp passedUpPk:vector(count) ETV
attr interpolationmode none
attr recordingmode vector(count)
attr source packetSentToUpper
attr title "packets passed up, count"
vector 101 TrainTopology.BCUUe[3].udp droppedPkWrongPort:vector(count) ETV
attr interpolationmode none
attr recordingmode vector(count)
attr source packetDropReasonIsNoPortFound(packetDropped)
attr title "packets dropped (wrong port), count"
vector 102 TrainTopology.BCUUe[3].udp droppedPkBadChecksum:vector(count) ETV
attr interpolationmode none
attr recordingmode vector(count)
attr source packetDropReasonIsIncorrectlyReceived(packetDropped)
attr title "packets dropped (checksum error), count"
vector 103 TrainTopology.TCUUe[0].cellularNic.phy servingCell:vector ETV
attr recordingmode vector
attr source servingCell
attr title "ID of the serving eNodeB for the UE"
attr unit ""
vector 104 TrainTopology.TCUUe[0].cellularNic.nrPhy servingCell:vector ETV
attr recordingmode vector
attr source servingCell
attr title "ID of the serving eNodeB for the UE"
attr unit ""
vector 105 TrainTopology.TCUUe[1].cellularNic.phy servingCell:vector ETV
attr recordingmode vector
attr source servingCell
attr title "ID of the serving eNodeB for the UE"
attr unit ""
vector 106 TrainTopology.TCUUe[1].cellularNic.nrPhy servingCell:vector ETV
attr recordingmode vector
attr source servingCell
attr title "ID of the serving eNodeB for the UE"
attr unit ""
vector 107 TrainTopology.TCUUe[2].cellularNic.phy servingCell:vector ETV
attr recordingmode vector
attr source servingCell
attr title "ID of the serving eNodeB for the UE"
attr unit ""
vector 108 TrainTopology.TCUUe[2].cellularNic.nrPhy servingCell:vector ETV
attr recordingmode vector
attr source servingCell
attr title "ID of the serving eNodeB for the UE"
attr unit ""
vector 109 TrainTopology.TCUUe[3].cellularNic.phy servingCell:vector ETV
attr recordingmode vector
attr source servingCell
attr title "ID of the serving eNodeB for the UE"
attr unit ""
vector 110 TrainTopology.TCUUe[3].cellularNic.nrPhy servingCell:vector ETV
attr recordingmode vector
attr source servingCell
attr title "ID of the serving eNodeB for the UE"
attr unit ""
vector 111 TrainTopology.BCUUe[0].cellularNic.phy servingCell:vector ETV
attr recordingmode vector
attr source servingCell
attr title "ID of the serving eNodeB for the UE"
attr unit ""
vector 112 TrainTopology.BCUUe[0].cellularNic.nrPhy servingCell:vector ETV
attr recordingmode vector
attr source servingCell
attr title "ID of the serving eNodeB for the UE"
attr unit ""
vector 113 TrainTopology.BCUUe[1].cellularNic.phy servingCell:vector ETV
attr recordingmode vector
attr source servingCell
attr title "ID of the serving eNodeB for the UE"
attr unit ""
vector 114 TrainTopology.BCUUe[1].cellularNic.nrPhy servingCell:vector ETV
attr recordingmode vector
attr source servingCell
attr title "ID of the serving eNodeB for the UE"
attr unit ""
vector 115 TrainTopology.BCUUe[2].cellularNic.phy servingCell:vector ETV
attr recordingmode vector
attr source servingCell
attr title "ID of the serving eNodeB for the UE"
attr unit ""
vector 116 TrainTopology.BCUUe[2].cellularNic.nrPhy servingCell:vector ETV
attr recordingmode vector
attr source servingCell
attr title "ID of the serving eNodeB for the UE"
attr unit ""
vector 117 TrainTopology.BCUUe[3].cellularNic.phy servingCell:vector ETV
attr recordingmode vector
attr source servingCell
attr title "ID of the serving eNodeB for the UE"
attr unit ""
vector 118 TrainTopology.BCUUe[3].cellularNic.nrPhy servingCell:vector ETV
attr recordingmode vector
attr source servingCell
attr title "ID of the serving eNodeB for the UE"
attr unit ""
vector 119 TrainTopology.switch1.bridging.streamFilter.ingress.meter[0] numTokens:vector ETV
attr interpolationmode linear
attr moduledisplaypath TrainTopology.switch1.bridging.streamFilter.ingress.besteffort
attr recordingmode vector
attr source tokensChanged
attr title "number of tokens"
attr unit tk
vector 120 TrainTopology.switch1.bridging.streamFilter.ingress.meter[1] numTokens:vector ETV
attr interpolationmode linear
attr moduledisplaypath TrainTopology.switch1.bridging.streamFilter.ingress.video
attr recordingmode vector
attr source tokensChanged
attr title "number of tokens"
attr unit tk
vector 121 TrainTopology.switch1.eth[0].macLayer.queue.transmissionSelectionAlgorithm[0] gateState:vector ETV
attr enum CLOSED,OPEN
attr interpolationmode sample-hold
attr moduledisplaypath TrainTopology.switch1.eth[0].macLayer.queue.besteffort
attr recordingmode vector
attr source gateStateChanged
attr title "gate state"
attr type enum
vector 122 TrainTopology.switch1.eth[0].macLayer.queue.transmissionSelectionAlgorithm[0] remainingEligibilityTime:vector ETV
attr interpolationmode linear
attr moduledisplaypath TrainTopology.switch1.eth[0].macLayer.queue.besteffort
attr recordingmode vector
attr source remainingEligibilityTimeChanged
attr title "remaining eligibility time"
attr unit s
vector 123 TrainTopology.switch1.eth[0].macLayer.queue.transmissionSelectionAlgorithm[1] gateState:vector ETV
attr enum CLOSED,OPEN
attr interpolationmode sample-hold
attr moduledisplaypath TrainTopology.switch1.eth[0].macLayer.queue.video
attr recordingmode vector
attr source gateStateChanged
attr title "gate state"
attr type enum
vector 124 TrainTopology.switch1.eth[0].macLayer.queue.transmissionSelectionAlgorithm[1] remainingEligibilityTime:vector ETV
attr interpolationmode linear
attr moduledisplaypath TrainTopology.switch1.eth[0].macLayer.queue.video
attr recordingmode vector
attr source remainingEligibilityTimeChanged
attr title "remaining eligibility time"
attr unit s
vector 125 TrainTopology.switch1.eth[1].macLayer.queue.transmissionSelectionAlgorithm[0] gateState:vector ETV
attr enum CLOSED,OPEN
attr interpolationmode sample-hold
attr moduledisplaypath TrainTopology.switch1.eth[1].macLayer.queue.besteffort
attr recordingmode vector
attr source gateStateChanged
attr title "gate state"
attr type enum
vector 126 TrainTopology.switch1.eth[1].macLayer.queue.transmissionSelectionAlgorithm[0] remainingEligibilityTime:vector ETV
attr interpolationmode linear
attr moduledisplaypath TrainTopology.switch1.eth[1].macLayer.queue.besteffort
attr recordingmode vector
attr source remainingEligibilityTimeChanged
attr title "remaining eligibility time"
attr unit s
vector 127 TrainTopology.switch1.eth[1].macLayer.queue.transmissionSelectionAlgorithm[1] gateState:vector ETV
attr enum CLOSED,OPEN
attr interpolationmode sample-hold
attr moduledisplaypath TrainTopology.switch1.eth[1].macLayer.queue.video
attr recordingmode vector
attr source gateStateChanged
attr title "gate state"
attr type enum
vector 128 TrainTopology.switch1.eth[1].macLayer.queue.transmissionSelectionAlgorithm[1] remainingEligibilityTime:vector ETV
attr interpolationmode linear
attr moduledisplaypath TrainTopology.switch1.eth[1].macLayer.queue.video
attr recordingmode vector
attr source remainingEligibilityTimeChanged
attr title "remaining eligibility time"
attr unit s
vector 129 TrainTopology.switch2.bridging.streamFilter.ingress.meter[0] numTokens:vector ETV
attr interpolationmode linear
attr moduledisplaypath TrainTopology.switch2.bridging.streamFilter.ingress.besteffort
attr recordingmode vector
attr source tokensChanged
attr title "number of tokens"
attr unit tk
vector 130 TrainTopology.switch2.bridging.streamFilter.ingress.meter[1] numTokens:vector ETV
attr interpolationmode linear
attr moduledisplaypath TrainTopology.switch2.bridging.streamFilter.ingress.video
attr recordingmode vector
attr source tokensChanged
attr title "number of tokens"
attr unit tk
vector 131 TrainTopology.switch2.eth[0].macLayer.queue.transmissionSelectionAlgorithm[0] gateState:vector ETV
attr enum CLOSED,OPEN
attr interpolationmode sample-hold
attr moduledisplaypath TrainTopology.switch2.eth[0].macLayer.queue.besteffort
attr recordingmode vector
attr source gateStateChanged
attr title "gate state"
attr type enum
vector 132 TrainTopology.switch2.eth[0].macLayer.queue.transmissionSelectionAlgorithm[0] remainingEligibilityTime:vector ETV
attr interpolationmode linear
attr moduledisplaypath TrainTopology.switch2.eth[0].macLayer.queue.besteffort
attr recordingmode vector
attr source remainingEligibilityTimeChanged
attr title "remaining eligibility time"
attr unit s
vector 133 TrainTopology.switch2.eth[0].macLayer.queue.transmissionSelectionAlgorithm[1] gateState:vector ETV
attr enum CLOSED,OPEN
attr interpolationmode sample-hold
attr moduledisplaypath TrainTopology.switch2.eth[0].macLayer.queue.video
attr recordingmode vector
attr source gateStateChanged
attr title "gate state"
attr type enum
vector 134 TrainTopology.switch2.eth[0].macLayer.queue.transmissionSelectionAlgorithm[1] remainingEligibilityTime:vector ETV
attr interpolationmode linear
attr moduledisplaypath TrainTopology.switch2.eth[0].macLayer.queue.video
attr recordingmode vector
attr source remainingEligibilityTimeChanged
attr title "remaining eligibility time"
attr unit s
vector 135 TrainTopology.switch2.eth[1].macLayer.queue.transmissionSelectionAlgorithm[0] gateState:vector ETV
attr enum CLOSED,OPEN
attr interpolationmode sample-hold
attr moduledisplaypath TrainTopology.switch2.eth[1].macLayer.queue.besteffort
attr recordingmode vector
attr source gateStateChanged
attr title "gate state"
attr type enum
vector 136 TrainTopology.switch2.eth[1].macLayer.queue.transmissionSelectionAlgorithm[0] remainingEligibilityTime:vector ETV
attr interpolationmode linear
attr moduledisplaypath TrainTopology.switch2.eth[1].macLayer.queue.besteffort
attr recordingmode vector
attr source remainingEligibilityTimeChanged
attr title "remaining eligibility time"
attr unit s
vector 137 TrainTopology.switch2.eth[1].macLayer.queue.transmissionSelectionAlgorithm[1] gateState:vector ETV
attr enum CLOSED,OPEN
attr interpolationmode sample-hold
attr moduledisplaypath TrainTopology.switch2.eth[1].macLayer.queue.video
attr recordingmode vector
attr source gateStateChanged
attr title "gate state"
attr type enum
vector 138 TrainTopology.switch2.eth[1].macLayer.queue.transmissionSelectionAlgorithm[1] remainingEligibilityTime:vector ETV
attr interpolationmode linear
attr moduledisplaypath TrainTopology.switch2.eth[1].macLayer.queue.video
attr recordingmode vector
attr source remainingEligibilityTimeChanged
attr title "remaining eligibility time"
attr unit s
vector 139 TrainTopology.switch3.bridging.streamFilter.ingress.meter[0] numTokens:vector ETV
attr interpolationmode linear
attr moduledisplaypath TrainTopology.switch3.bridging.streamFilter.ingress.besteffort
attr recordingmode vector
attr source tokensChanged
attr title "number of tokens"
attr unit tk
vector 140 TrainTopology.switch3.bridging.streamFilter.ingress.meter[1] numTokens:vector ETV
attr interpolationmode linear
attr moduledisplaypath TrainTopology.switch3.bridging.streamFilter.ingress.video
attr recordingmode vector
attr source tokensChanged
attr title "number of tokens"
attr unit tk
vector 141 TrainTopology.switch3.eth[0].macLayer.queue.transmissionSelectionAlgorithm[0] gateState:vector ETV
attr enum CLOSED,OPEN
attr interpolationmode sample-hold
attr moduledisplaypath TrainTopology.switch3.eth[0].macLayer.queue.besteffort
attr recordingmode vector
attr source gateStateChanged
attr title "gate state"
attr type enum
vector 142 TrainTopology.switch3.eth[0].macLayer.queue.transmissionSelectionAlgorithm[0] remainingEligibilityTime:vector ETV
attr interpolationmode linear
attr moduledisplaypath TrainTopology.switch3.eth[0].macLayer.queue.besteffort
attr recordingmode vector
attr source remainingEligibilityTimeChanged
attr title "remaining eligibility time"
attr unit s
vector 143 TrainTopology.switch3.eth[0].macLayer.queue.transmissionSelectionAlgorithm[1] gateState:vector ETV
attr enum CLOSED,OPEN
attr interpolationmode sample-hold
attr moduledisplaypath TrainTopology.switch3.eth[0].macLayer.queue.video
attr recordingmode vector
attr source gateStateChanged
attr title "gate state"
attr type enum
vector 144 TrainTopology.switch3.eth[0].macLayer.queue.transmissionSelectionAlgorithm[1] remainingEligibilityTime:vector ETV
attr interpolationmode linear
attr moduledisplaypath TrainTopology.switch3.eth[0].macLayer.queue.video
attr recordingmode vector
attr source remainingEligibilityTimeChanged
attr title "remaining eligibility time"
attr unit s
vector 145 TrainTopology.switch3.eth[1].macLayer.queue.transmissionSelectionAlgorithm[0] gateState:vector ETV
attr enum CLOSED,OPEN
attr interpolationmode sample-hold
attr moduledisplaypath TrainTopology.switch3.eth[1].macLayer.queue.besteffort
attr recordingmode vector
attr source gateStateChanged
attr title "gate state"
attr type enum
vector 146 TrainTopology.switch3.eth[1].macLayer.queue.transmissionSelectionAlgorithm[0] remainingEligibilityTime:vector ETV
attr interpolationmode linear
attr moduledisplaypath TrainTopology.switch3.eth[1].macLayer.queue.besteffort
attr recordingmode vector
attr source remainingEligibilityTimeChanged
attr title "remaining eligibility time"
attr unit s
vector 147 TrainTopology.switch3.eth[1].macLayer.queue.transmissionSelectionAlgorithm[1] gateState:vector ETV
attr enum CLOSED,OPEN
attr interpolationmode sample-hold
attr moduledisplaypath TrainTopology.switch3.eth[1].macLayer.queue.video
attr recordingmode vector
attr source gateStateChanged
attr title "gate state"
attr type enum
vector 148 TrainTopology.switch3.eth[1].macLayer.queue.transmissionSelectionAlgorithm[1] remainingEligibilityTime:vector ETV
attr interpolationmode linear
attr moduledisplaypath TrainTopology.switch3.eth[1].macLayer.queue.video
attr recordingmode vector
attr source remainingEligibilityTimeChanged
attr title "remaining eligibility time"
attr unit s
vector 149 TrainTopology.switch3.eth[2].macLayer.queue.transmissionSelectionAlgorithm[0] gateState:vector ETV
attr enum CLOSED,OPEN
attr interpolationmode sample-hold
attr moduledisplaypath TrainTopology.switch3.eth[2].macLayer.queue.besteffort
attr recordingmode vector
attr source gateStateChanged
attr title "gate state"
attr type enum
vector 150 TrainTopology.switch3.eth[2].macLayer.queue.transmissionSelectionAlgorithm[0] remainingEligibilityTime:vector ETV
attr interpolationmode linear
attr moduledisplaypath TrainTopology.switch3.eth[2].macLayer.queue.besteffort
attr recordingmode vector
attr source remainingEligibilityTimeChanged
attr title "remaining eligibility time"
attr unit s
vector 151 TrainTopology.switch3.eth[2].macLayer.queue.transmissionSelectionAlgorithm[1] gateState:vector ETV
attr enum CLOSED,OPEN
attr interpolationmode sample-hold
attr moduledisplaypath TrainTopology.switch3.eth[2].macLayer.queue.video
attr recordingmode vector
attr source gateStateChanged
attr title "gate state"
attr type enum
vector 152 TrainTopology.switch3.eth[2].macLayer.queue.transmissionSelectionAlgorithm[1] remainingEligibilityTime:vector ETV
attr interpolationmode linear
attr moduledisplaypath TrainTopology.switch3.eth[2].macLayer.queue.video
attr recordingmode vector
attr source remainingEligibilityTimeChanged
attr title "remaining eligibility time"
attr unit s
vector 153 TrainTopology.switch1.bridging.streamFilter.ingress.gate[0] gateState:vector ETV
attr enum CLOSED,OPEN
attr interpolationmode sample-hold
attr moduledisplaypath TrainTopology.switch1.bridging.streamFilter.ingress.besteffort
attr recordingmode vector
attr source gateStateChanged
attr title "gate state"
attr type enum
vector 154 TrainTopology.switch1.bridging.streamFilter.ingress.gate[1] gateState:vector ETV
attr enum CLOSED,OPEN
attr interpolationmode sample-hold
attr moduledisplaypath TrainTopology.switch1.bridging.streamFilter.ingress.video
attr recordingmode vector
attr source gateStateChanged
attr title "gate state"
attr type enum
vector 155 TrainTopology.switch1.eth[0].macLayer.queue.transmissionGate[0] gateState:vector ETV
attr enum CLOSED,OPEN
attr interpolationmode sample-hold
attr moduledisplaypath TrainTopology.switch1.eth[0].macLayer.queue.besteffort
attr recordingmode vector
attr source gateStateChanged
attr title "gate state"
attr type enum
vector 156 TrainTopology.switch1.eth[0].macLayer.queue.transmissionGate[0] guardBandState:vector ETV
attr enum ON,OFF
attr interpolationmode sample-hold
attr moduledisplaypath TrainTopology.switch1.eth[0].macLayer.queue.besteffort
attr recordingmode vector
attr source guardBandStateChanged
attr title "guard band state"
attr type enum
vector 157 TrainTopology.switch1.eth[0].macLayer.queue.transmissionGate[1] gateState:vector ETV
attr enum CLOSED,OPEN
attr interpolationmode sample-hold
attr moduledisplaypath TrainTopology.switch1.eth[0].macLayer.queue.video
attr recordingmode vector
attr source gateStateChanged
attr title "gate state"
attr type enum
vector 158 TrainTopology.switch1.eth[0].macLayer.queue.transmissionGate[1] guardBandState:vector ETV
attr enum ON,OFF
attr interpolationmode sample-hold
attr moduledisplaypath TrainTopology.switch1.eth[0].macLayer.queue.video
attr recordingmode vector
attr source guardBandStateChanged
attr title "guard band state"
attr type enum
vector 159 TrainTopology.switch1.eth[1].macLayer.queue.transmissionGate[0] gateState:vector ETV
attr enum CLOSED,OPEN
attr interpolationmode sample-hold
attr moduledisplaypath TrainTopology.switch1.eth[1].macLayer.queue.besteffort
attr recordingmode vector
attr source gateStateChanged
attr title "gate state"
attr type enum
vector 160 TrainTopology.switch1.eth[1].macLayer.queue.transmissionGate[0] guardBandState:vector ETV
attr enum ON,OFF
attr interpolationmode sample-hold
attr moduledisplaypath TrainTopology.switch1.eth[1].macLayer.queue.besteffort
attr recordingmode vector
attr source guardBandStateChanged
attr title "guard band state"
attr type enum
vector 161 TrainTopology.switch1.eth[1].macLayer.queue.transmissionGate[1] gateState:vector ETV
attr enum CLOSED,OPEN
attr interpolationmode sample-hold
attr moduledisplaypath TrainTopology.switch1.eth[1].macLayer.queue.video
attr recordingmode vector
attr source gateStateChanged
attr title "gate state"
attr type enum
vector 162 TrainTopology.switch1.eth[1].macLayer.queue.transmissionGate[1] guardBandState:vector ETV
attr enum ON,OFF
attr interpolationmode sample-hold
attr moduledisplaypath TrainTopology.switch1.eth[1].macLayer.queue.video
attr recordingmode vector
attr source guardBandStateChanged
attr title "guard band state"
attr type enum
vector 163 TrainTopology.switch2.bridging.streamFilter.ingress.gate[0] gateState:vector ETV
attr enum CLOSED,OPEN
attr interpolationmode sample-hold
attr moduledisplaypath TrainTopology.switch2.bridging.streamFilter.ingress.besteffort
attr recordingmode vector
attr source gateStateChanged
attr title "gate state"
attr type enum
vector 164 TrainTopology.switch2.bridging.streamFilter.ingress.gate[1] gateState:vector ETV
attr enum CLOSED,OPEN
attr interpolationmode sample-hold
attr moduledisplaypath TrainTopology.switch2.bridging.streamFilter.ingress.video
attr recordingmode vector
attr source gateStateChanged
attr title "gate state"
attr type enum
vector 165 TrainTopology.switch2.eth[0].macLayer.queue.transmissionGate[0] gateState:vector ETV
attr enum CLOSED,OPEN
attr interpolationmode sample-hold
attr moduledisplaypath TrainTopology.switch2.eth[0].macLayer.queue.besteffort
attr recordingmode vector
attr source gateStateChanged
attr title "gate state"
attr type enum
vector 166 TrainTopology.switch2.eth[0].macLayer.queue.transmissionGate[0] guardBandState:vector ETV
attr enum ON,OFF
attr interpolationmode sample-hold
attr moduledisplaypath TrainTopology.switch2.eth[0].macLayer.queue.besteffort
attr recordingmode vector
attr source guardBandStateChanged
attr title "guard band state"
attr type enum
vector 167 TrainTopology.switch2.eth[0].macLayer.queue.transmissionGate[1] gateState:vector ETV
attr enum CLOSED,OPEN
attr interpolationmode sample-hold
attr moduledisplaypath TrainTopology.switch2.eth[0].macLayer.queue.video
attr recordingmode vector
attr source gateStateChanged
attr title "gate state"
attr type enum
vector 168 TrainTopology.switch2.eth[0].macLayer.queue.transmissionGate[1] guardBandState:vector ETV
attr enum ON,OFF
attr interpolationmode sample-hold
attr moduledisplaypath TrainTopology.switch2.eth[0].macLayer.queue.video
attr recordingmode vector
attr source guardBandStateChanged
attr title "guard band state"
attr type enum
vector 169 TrainTopology.switch2.eth[1].macLayer.queue.transmissionGate[0] gateState:vector ETV
attr enum CLOSED,OPEN
attr interpolationmode sample-hold
attr moduledisplaypath TrainTopology.switch2.eth[1].macLayer.queue.besteffort
attr recordingmode vector
attr source gateStateChanged
attr title "gate state"
attr type enum
vector 170 TrainTopology.switch2.eth[1].macLayer.queue.transmissionGate[0] guardBandState:vector ETV
attr enum ON,OFF
attr interpolationmode sample-hold
attr moduledisplaypath TrainTopology.switch2.eth[1].macLayer.queue.besteffort
attr recordingmode vector
attr source guardBandStateChanged
attr title "guard band state"
attr type enum
vector 171 TrainTopology.switch2.eth[1].macLayer.queue.transmissionGate[1] gateState:vector ETV
attr enum CLOSED,OPEN
attr interpolationmode sample-hold
attr moduledisplaypath TrainTopology.switch2.eth[1].macLayer.queue.video
attr recordingmode vector
attr source gateStateChanged
attr title "gate state"
attr type enum
vector 172 TrainTopology.switch2.eth[1].macLayer.queue.transmissionGate[1] guardBandState:vector ETV
attr enum ON,OFF
attr interpolationmode sample-hold
attr moduledisplaypath TrainTopology.switch2.eth[1].macLayer.queue.video
attr recordingmode vector
attr source guardBandStateChanged
attr title "guard band state"
attr type enum
vector 173 TrainTopology.switch3.bridging.streamFilter.ingress.gate[0] gateState:vector ETV
attr enum CLOSED,OPEN
attr interpolationmode sample-hold
attr moduledisplaypath TrainTopology.switch3.bridging.streamFilter.ingress.besteffort
attr recordingmode vector
attr source gateStateChanged
attr title "gate state"
attr type enum
vector 174 TrainTopology.switch3.bridging.streamFilter.ingress.gate[1] gateState:vector ETV
attr enum CLOSED,OPEN
attr interpolationmode sample-hold
attr moduledisplaypath TrainTopology.switch3.bridging.streamFilter.ingress.video
attr recordingmode vector
attr source gateStateChanged
attr title "gate state"
attr type enum
vector 175 TrainTopology.switch3.eth[0].macLayer.queue.transmissionGate[0] gateState:vector ETV
attr enum CLOSED,OPEN
attr interpolationmode sample-hold
attr moduledisplaypath TrainTopology.switch3.eth[0].macLayer.queue.besteffort
attr recordingmode vector
attr source gateStateChanged
attr title "gate state"
attr type enum
vector 176 TrainTopology.switch3.eth[0].macLayer.queue.transmissionGate[0] guardBandState:vector ETV
attr enum ON,OFF
attr interpolationmode sample-hold
attr moduledisplaypath TrainTopology.switch3.eth[0].macLayer.queue.besteffort
attr recordingmode vector
attr source guardBandStateChanged
attr title "guard band state"
attr type enum
vector 177 TrainTopology.switch3.eth[0].macLayer.queue.transmissionGate[1] gateState:vector ETV
attr enum CLOSED,OPEN
attr interpolationmode sample-hold
attr moduledisplaypath TrainTopology.switch3.eth[0].macLayer.queue.video
attr recordingmode vector
attr source gateStateChanged
attr title "gate state"
attr type enum
vector 178 TrainTopology.switch3.eth[0].macLayer.queue.transmissionGate[1] guardBandState:vector ETV
attr enum ON,OFF
attr interpolationmode sample-hold
attr moduledisplaypath TrainTopology.switch3.eth[0].macLayer.queue.video
attr recordingmode vector
attr source guardBandStateChanged
attr title "guard band state"
attr type enum
vector 179 TrainTopology.switch3.eth[1].macLayer.queue.transmissionGate[0] gateState:vector ETV
attr enum CLOSED,OPEN
attr interpolationmode sample-hold
attr moduledisplaypath TrainTopology.switch3.eth[1].macLayer.queue.besteffort
attr recordingmode vector
attr source gateStateChanged
attr title "gate state"
attr type enum
vector 180 TrainTopology.switch3.eth[1].macLayer.queue.transmissionGate[0] guardBandState:vector ETV
attr enum ON,OFF
attr interpolationmode sample-hold
attr moduledisplaypath TrainTopology.switch3.eth[1].macLayer.queue.besteffort
attr recordingmode vector
attr source guardBandStateChanged
attr title "guard band state"
attr type enum
vector 181 TrainTopology.switch3.eth[1].macLayer.queue.transmissionGate[1] gateState:vector ETV
attr enum CLOSED,OPEN
attr interpolationmode sample-hold
attr moduledisplaypath TrainTopology.switch3.eth[1].macLayer.queue.video
attr recordingmode vector
attr source gateStateChanged
attr title "gate state"
attr type enum
vector 182 TrainTopology.switch3.eth[1].macLayer.queue.transmissionGate[1] guardBandState:vector ETV
attr enum ON,OFF
attr interpolationmode sample-hold
attr moduledisplaypath TrainTopology.switch3.eth[1].macLayer.queue.video
attr recordingmode vector
attr source guardBandStateChanged
attr title "guard band state"
attr type enum
vector 183 TrainTopology.switch3.eth[2].macLayer.queue.transmissionGate[0] gateState:vector ETV
attr enum CLOSED,OPEN
attr interpolationmode sample-hold
attr moduledisplaypath TrainTopology.switch3.eth[2].macLayer.queue.besteffort
attr recordingmode vector
attr source gateStateChanged
attr title "gate state"
attr type enum
vector 184 TrainTopology.switch3.eth[2].macLayer.queue.transmissionGate[0] guardBandState:vector ETV
attr enum ON,OFF
attr interpolationmode sample-hold
attr moduledisplaypath TrainTopology.switch3.eth[2].macLayer.queue.besteffort
attr recordingmode vector
attr source guardBandStateChanged
attr title "guard band state"
attr type enum
vector 185 TrainTopology.switch3.eth[2].macLayer.queue.transmissionGate[1] gateState:vector ETV
attr enum CLOSED,OPEN
attr interpolationmode sample-hold
attr moduledisplaypath TrainTopology.switch3.eth[2].macLayer.queue.video
attr recordingmode vector
attr source gateStateChanged
attr title "gate state"
attr type enum
vector 186 TrainTopology.switch3.eth[2].macLayer.queue.transmissionGate[1] guardBandState:vector ETV
attr enum ON,OFF
attr interpolationmode sample-hold
attr moduledisplaypath TrainTopology.switch3.eth[2].macLayer.queue.video
attr recordingmode vector
attr source guardBandStateChanged
attr title "guard band state"
attr type enum
vector 187 TrainTopology.gnb1.sctp "Throughput of Association 46" ETV
vector 188 TrainTopology.gnb2.sctp "Throughput of Association 47" ETV
vector 189 TrainTopology.gnb1.sctp "Throughput of Association 7" ETV
vector 190 TrainTopology.gnb1.sctp "Fast Recovery State 7:10.0.0.14" ETV
vector 191 TrainTopology.gnb2.sctp "Throughput of Association 11" ETV
vector 192 TrainTopology.gnb2.sctp "Fast Recovery State 11:10.0.0.13" ETV
vector 193 TrainTopology.gnb1.x2ppp[0].queue incomingPacketLengths:vector ETV
attr interpolationmode none
attr recordingmode vector
attr source packetLength(packetPushStarted)
attr title "incoming packet lengths"
attr unit b
vector 194 TrainTopology.gnb1.x2ppp[0].queue queueingTime:vector ETV
attr interpolationmode none
attr recordingmode vector
attr source queueingTime(packetPulled)
attr title "queueing times"
attr unit s
vector 195 TrainTopology.gnb1.x2ppp[0].queue outgoingPacketLengths:vector ETV
attr interpolationmode none
attr recordingmode vector
attr source packetLength(packetPulled)
attr title "outgoing packet lengths"
attr unit b
vector 196 TrainTopology.gnb1.x2ppp[0].ppp rcvdPkFromHl:vector(packetBytes) ETV
attr interpolationmode none
attr recordingmode vector(packetBytes)
attr source packetReceivedFromUpper
attr title "packets received from higher layer, packetBytes"
vector 197 TrainTopology.gnb1.x2ppp[0].ppp txPk:vector(packetBytes) ETV
attr interpolationmode none
attr recordingmode vector(packetBytes)
attr source packetSentToLower
attr title "packets transmitted, packetBytes"
vector 198 TrainTopology.gnb1.x2ppp[0].queue queueLength:vector ETV
attr autoWarmupFilter false
attr interpolationmode sample-hold
attr recordingmode vector
attr source "warmup(atomic(constant0(packetPushEnded) + count(packetPushStarted) - count(packetPulled) - count(packetRemoved) - count(packetDropped)))"
attr title "queue length"
attr unit pk
vector 199 TrainTopology.gnb1.x2ppp[0].queue queueBitLength:vector ETV
attr autoWarmupFilter false
attr interpolationmode sample-hold
attr recordingmode vector
attr source "warmup(atomic(constant0(packetPushEnded) + sum(packetLength(packetPushStarted)) - sum(packetLength(packetPulled)) - sum(packetLength(packetRemoved)) - sum(packetLength(packetDropped))))"
attr title "queue bit length"
attr unit b
vector 200 TrainTopology.gnb2.x2ppp[0].queue incomingPacketLengths:vector ETV
attr interpolationmode none
attr recordingmode vector
attr source packetLength(packetPushStarted)
attr title "incoming packet lengths"
attr unit b
vector 201 TrainTopology.gnb2.x2ppp[0].queue queueingTime:vector ETV
attr interpolationmode none
attr recordingmode vector
attr source queueingTime(packetPulled)
attr title "queueing times"
attr unit s
vector 202 TrainTopology.gnb2.x2ppp[0].queue outgoingPacketLengths:vector ETV
attr interpolationmode none
attr recordingmode vector
attr source packetLength(packetPulled)
attr title "outgoing packet lengths"
attr unit b
vector 203 TrainTopology.gnb2.x2ppp[0].ppp rcvdPkFromHl:vector(packetBytes) ETV
attr interpolationmode none
attr recordingmode vector(packetBytes)
attr source packetReceivedFromUpper
attr title "packets received from higher layer, packetBytes"
vector 204 TrainTopology.gnb2.x2ppp[0].ppp txPk:vector(packetBytes) ETV
attr interpolationmode none
attr recordingmode vector(packetBytes)
attr source packetSentToLower
attr title "packets transmitted, packetBytes"
vector 205 TrainTopology.gnb2.x2ppp[0].queue queueLength:vector ETV
attr autoWarmupFilter false
attr interpolationmode sample-hold
attr recordingmode vector
attr source "warmup(atomic(constant0(packetPushEnded) + count(packetPushStarted) - count(packetPulled) - count(packetRemoved) - count(packetDropped)))"
attr title "queue length"
attr unit pk
vector 206 TrainTopology.gnb2.x2ppp[0].queue queueBitLength:vector ETV
attr autoWarmupFilter false
attr interpolationmode sample-hold
attr recordingmode vector
attr source "warmup(atomic(constant0(packetPushEnded) + sum(packetLength(packetPushStarted)) - sum(packetLength(packetPulled)) - sum(packetLength(packetRemoved)) - sum(packetLength(packetDropped))))"
attr title "queue bit length"
attr unit b
vector 207 TrainTopology.gnb2.x2ppp[0].ppp rxPkOk:vector(packetBytes) ETV
attr interpolationmode none
attr recordingmode vector(packetBytes)
attr source rxPkOk
attr title "packets received OK, packetBytes"
vector 208 TrainTopology.gnb2.x2ppp[0].ppp passedUpPk:vector(packetBytes) ETV
attr interpolationmode none
attr recordingmode vector(packetBytes)
attr source packetSentToUpper
attr title "packets passed to higher layer, packetBytes"
vector 209 TrainTopology.gnb1.x2ppp[0].ppp rxPkOk:vector(packetBytes) ETV
attr interpolationmode none
attr recordingmode vector(packetBytes)
attr source rxPkOk
attr title "packets received OK, packetBytes"
vector 210 TrainTopology.gnb1.x2ppp[0].ppp passedUpPk:vector(packetBytes) ETV
attr interpolationmode none
attr recordingmode vector(packetBytes)
attr source packetSentToUpper
attr title "packets passed to higher layer, packetBytes"
vector 211 TrainTopology.gnb2.sctp "Throughput of Association 47" ETV
vector 212 TrainTopology.gnb2.sctp "Peer Rwnd 47" ETV
vector 213 TrainTopology.gnb2.sctp "Fast Recovery State 48:10.0.0.17" ETV
vector 214 TrainTopology.gnb2.sctp "Fast Recovery State 48:10.0.0.6" ETV
vector 215 TrainTopology.gnb2.sctp "Fast Recovery State 48:10.0.0.13" ETV
vector 216 TrainTopology.gnb2.sctp "Fast Recovery State 48:10.0.0.33" ETV
vector 217 TrainTopology.gnb1.sctp "Throughput of Association 46" ETV
vector 218 TrainTopology.gnb1.sctp "Peer Rwnd 46" ETV
vector 219 TrainTopology.gnb1.sctp "Fast Recovery State 49:10.0.0.18" ETV
vector 220 TrainTopology.gnb1.sctp "Fast Recovery State 49:10.0.0.10" ETV
vector 221 TrainTopology.gnb1.sctp "Fast Recovery State 49:10.0.0.14" ETV
vector 222 TrainTopology.gnb1.sctp "Fast Recovery State 49:10.0.0.37" ETV
vector 223 TrainTopology.gnb1.sctp "Peer Rwnd 7" ETV
vector 224 TrainTopology.gnb1.sctp "Fast Recovery State 7:10.0.0.18" ETV
vector 225 TrainTopology.gnb1.sctp "Fast Recovery State 7:10.0.0.10" ETV
vector 226 TrainTopology.gnb1.sctp "Fast Recovery State 7:10.0.0.37" ETV
vector 227 TrainTopology.gnb2.sctp "Peer Rwnd 11" ETV
vector 228 TrainTopology.gnb2.sctp "Fast Recovery State 11:10.0.0.17" ETV
vector 229 TrainTopology.gnb2.sctp "Fast Recovery State 11:10.0.0.6" ETV
vector 230 TrainTopology.gnb2.sctp "Fast Recovery State 11:10.0.0.33" ETV
vector 231 TrainTopology.gnb2.sctp "Slow Start Threshold 48:10.0.0.6" ETV
vector 232 TrainTopology.gnb2.sctp "Congestion Window 48:10.0.0.6" ETV
vector 233 TrainTopology.gnb2.sctp "Bandwidth 48:10.0.0.6" ETV
vector 234 TrainTopology.gnb2.sctp "HB Sent 48:10.0.0.6" ETV
vector 235 TrainTopology.gnb2.sctp "RTO 48:10.0.0.6" ETV
vector 236 TrainTopology.gnb2.sctp "Slow Start Threshold 48:10.0.0.13" ETV
vector 237 TrainTopology.gnb2.sctp "Congestion Window 48:10.0.0.13" ETV
vector 238 TrainTopology.gnb2.sctp "Bandwidth 48:10.0.0.13" ETV
vector 239 TrainTopology.gnb2.sctp "RTO 48:10.0.0.13" ETV
vector 240 TrainTopology.gnb2.sctp "Slow Start Threshold 48:10.0.0.17" ETV
vector 241 TrainTopology.gnb2.sctp "Congestion Window 48:10.0.0.17" ETV
vector 242 TrainTopology.gnb2.sctp "Bandwidth 48:10.0.0.17" ETV
vector 243 TrainTopology.gnb2.sctp "HB Sent 48:10.0.0.17" ETV
vector 244 TrainTopology.gnb2.sctp "RTO 48:10.0.0.17" ETV
vector 245 TrainTopology.gnb2.sctp "Slow Start Threshold 48:10.0.0.33" ETV
vector 246 TrainTopology.gnb2.sctp "Congestion Window 48:10.0.0.33" ETV
vector 247 TrainTopology.gnb2.sctp "Bandwidth 48:10.0.0.33" ETV
vector 248 TrainTopology.gnb2.sctp "HB Sent 48:10.0.0.33" ETV
vector 249 TrainTopology.gnb2.sctp "RTO 48:10.0.0.33" ETV
vector 250 TrainTopology.gnb1.sctp "Slow Start Threshold 49:10.0.0.10" ETV
vector 251 TrainTopology.gnb1.sctp "Congestion Window 49:10.0.0.10" ETV
vector 252 TrainTopology.gnb1.sctp "Bandwidth 49:10.0.0.10" ETV
vector 253 TrainTopology.gnb1.sctp "HB Sent 49:10.0.0.10" ETV
vector 254 TrainTopology.gnb1.sctp "RTO 49:10.0.0.10" ETV
vector 255 TrainTopology.gnb1.sctp "Slow Start Threshold 49:10.0.0.14" ETV
vector 256 TrainTopology.gnb1.sctp "Congestion Window 49:10.0.0.14" ETV
vector 257 TrainTopology.gnb1.sctp "Bandwidth 49:10.0.0.14" ETV
vector 258 TrainTopology.gnb1.sctp "RTO 49:10.0.0.14" ETV
vector 259 TrainTopology.gnb1.sctp "Slow Start Threshold 49:10.0.0.18" ETV
vector 260 TrainTopology.gnb1.sctp "Congestion Window 49:10.0.0.18" ETV
vector 261 TrainTopology.gnb1.sctp "Bandwidth 49:10.0.0.18" ETV
vector 262 TrainTopology.gnb1.sctp "HB Sent 49:10.0.0.18" ETV
vector 263 TrainTopology.gnb1.sctp "RTO 49:10.0.0.18" ETV
vector 264 TrainTopology.gnb1.sctp "Slow Start Threshold 49:10.0.0.37" ETV
vector 265 TrainTopology.gnb1.sctp "Congestion Window 49:10.0.0.37" ETV
vector 266 TrainTopology.gnb1.sctp "Bandwidth 49:10.0.0.37" ETV
vector 267 TrainTopology.gnb1.sctp "HB Sent 49:10.0.0.37" ETV
vector 268 TrainTopology.gnb1.sctp "RTO 49:10.0.0.37" ETV
vector 269 TrainTopology.gnb1.sctp "HB ACK Sent 7:10.0.0.14" ETV
vector 270 TrainTopology.gnb1.sctp "HB Received 7:10.0.0.14" ETV
vector 271 TrainTopology.gnb2.sctp "HB ACK Sent 11:10.0.0.13" ETV
vector 272 TrainTopology.gnb2.sctp "HB Received 11:10.0.0.13" ETV
vector 273 TrainTopology.gnb1.sctp "Slow Start Threshold 7:10.0.0.10" ETV
vector 274 TrainTopology.gnb1.sctp "Congestion Window 7:10.0.0.10" ETV
vector 275 TrainTopology.gnb1.sctp "Bandwidth 7:10.0.0.10" ETV
vector 276 TrainTopology.gnb1.sctp "HB Sent 7:10.0.0.10" ETV
vector 277 TrainTopology.gnb1.sctp "RTO 7:10.0.0.10" ETV
vector 278 TrainTopology.gnb1.sctp "Slow Start Threshold 7:10.0.0.14" ETV
vector 279 TrainTopology.gnb1.sctp "Congestion Window 7:10.0.0.14" ETV
vector 280 TrainTopology.gnb1.sctp "Bandwidth 7:10.0.0.14" ETV
vector 281 TrainTopology.gnb1.sctp "RTO 7:10.0.0.14" ETV
vector 282 TrainTopology.gnb1.sctp "Slow Start Threshold 7:10.0.0.18" ETV
vector 283 TrainTopology.gnb1.sctp "Congestion Window 7:10.0.0.18" ETV
vector 284 TrainTopology.gnb1.sctp "Bandwidth 7:10.0.0.18" ETV
vector 285 TrainTopology.gnb1.sctp "HB Sent 7:10.0.0.18" ETV
vector 286 TrainTopology.gnb1.sctp "RTO 7:10.0.0.18" ETV
vector 287 TrainTopology.gnb1.sctp "Slow Start Threshold 7:10.0.0.37" ETV
vector 288 TrainTopology.gnb1.sctp "Congestion Window 7:10.0.0.37" ETV
vector 289 TrainTopology.gnb1.sctp "Bandwidth 7:10.0.0.37" ETV
vector 290 TrainTopology.gnb1.sctp "HB Sent 7:10.0.0.37" ETV
vector 291 TrainTopology.gnb1.sctp "RTO 7:10.0.0.37" ETV
vector 292 TrainTopology.gnb2.sctp "Slow Start Threshold 11:10.0.0.6" ETV
vector 293 TrainTopology.gnb2.sctp "Congestion Window 11:10.0.0.6" ETV
vector 294 TrainTopology.gnb2.sctp "Bandwidth 11:10.0.0.6" ETV
vector 295 TrainTopology.gnb2.sctp "HB Sent 11:10.0.0.6" ETV
vector 296 TrainTopology.gnb2.sctp "RTO 11:10.0.0.6" ETV
vector 297 TrainTopology.gnb2.sctp "Slow Start Threshold 11:10.0.0.13" ETV
vector 298 TrainTopology.gnb2.sctp "Congestion Window 11:10.0.0.13" ETV
vector 299 TrainTopology.gnb2.sctp "Bandwidth 11:10.0.0.13" ETV
vector 300 TrainTopology.gnb2.sctp "RTO 11:10.0.0.13" ETV
vector 301 TrainTopology.gnb2.sctp "Slow Start Threshold 11:10.0.0.17" ETV
vector 302 TrainTopology.gnb2.sctp "Congestion Window 11:10.0.0.17" ETV
vector 303 TrainTopology.gnb2.sctp "Bandwidth 11:10.0.0.17" ETV
vector 304 TrainTopology.gnb2.sctp "HB Sent 11:10.0.0.17" ETV
vector 305 TrainTopology.gnb2.sctp "RTO 11:10.0.0.17" ETV
vector 306 TrainTopology.gnb2.sctp "Slow Start Threshold 11:10.0.0.33" ETV
vector 307 TrainTopology.gnb2.sctp "Congestion Window 11:10.0.0.33" ETV
vector 308 TrainTopology.gnb2.sctp "Bandwidth 11:10.0.0.33" ETV
vector 309 TrainTopology.gnb2.sctp "HB Sent 11:10.0.0.33" ETV
vector 310 TrainTopology.gnb2.sctp "RTO 11:10.0.0.33" ETV
vector 311 TrainTopology.gnb1.sctp "HB ACK Received 49:10.0.0.14" ETV
vector 312 TrainTopology.gnb1.sctp "RTT 49:10.0.0.14" ETV
vector 313 TrainTopology.gnb2.sctp "HB ACK Received 48:10.0.0.13" ETV
vector 314 TrainTopology.gnb2.sctp "RTT 48:10.0.0.13" ETV
vector 315 TrainTopology.gnb1.sctp "HB ACK Sent 49:10.0.0.14" ETV
vector 316 TrainTopology.gnb1.sctp "HB Received 49:10.0.0.14" ETV
vector 317 TrainTopology.gnb2.sctp "HB ACK Sent 48:10.0.0.13" ETV
vector 318 TrainTopology.gnb2.sctp "HB Received 48:10.0.0.13" ETV
vector 319 TrainTopology.gnb1.sctp "HB ACK Received 7:10.0.0.14" ETV
vector 320 TrainTopology.gnb1.sctp "RTT 7:10.0.0.14" ETV
vector 321 TrainTopology.gnb2.sctp "HB ACK Received 11:10.0.0.13" ETV
vector 322 TrainTopology.gnb2.sctp "RTT 11:10.0.0.13" ETV
vector 323 TrainTopology.gnb1.cellularNic.mac avgServedBlocksUl:vector ETV
attr recordingmode vector
attr source avgServedBlocksUl
attr title "Avg Served Blocks Ul"
attr unit blocks
vector 324 TrainTopology.gnb1.cellularNic.mac avgServedBlocksDl:vector ETV
attr recordingmode vector
attr source avgServedBlocksDl
attr title "Avg Served Blocks Dl"
attr unit blocks
vector 325 TrainTopology.gnb2.cellularNic.mac avgServedBlocksUl:vector ETV
attr recordingmode vector
attr source avgServedBlocksUl
attr title "Avg Served Blocks Ul"
attr unit blocks
vector 326 TrainTopology.gnb2.cellularNic.mac avgServedBlocksDl:vector ETV
attr recordingmode vector
attr source avgServedBlocksDl
attr title "Avg Served Blocks Dl"
attr unit blocks
vector 327 TrainTopology.TCUUe[0].cellularNic.nrChannelModel[0] measuredSinrUl:vector ETV
attr recordingmode vector
attr source measuredSinrUl
attr title "SINR measured at feedback computation, UL"
attr unit dB
vector 328 TrainTopology.TCUUe[0].cellularNic.nrChannelModel[0] measuredSinrDl:vector ETV
attr recordingmode vector
attr source measuredSinrDl
attr title "SINR measured at feedback computation, DL"
attr unit dB
vector 329 TrainTopology.gnb1.cellularNic.mac receivedPacketFromLowerLayer:vector(packetBytes) ETV
attr interpolationmode none
attr recordingmode vector(packetBytes)
attr source receivedPacketFromLowerLayer
vector 330 TrainTopology.TCUUe[1].cellularNic.nrChannelModel[0] measuredSinrUl:vector ETV
attr recordingmode vector
attr source measuredSinrUl
attr title "SINR measured at feedback computation, UL"
attr unit dB
vector 331 TrainTopology.TCUUe[1].cellularNic.nrChannelModel[0] measuredSinrDl:vector ETV
attr recordingmode vector
attr source measuredSinrDl
attr title "SINR measured at feedback computation, DL"
attr unit dB
vector 332 TrainTopology.TCUUe[2].cellularNic.nrChannelModel[0] measuredSinrUl:vector ETV
attr recordingmode vector
attr source measuredSinrUl
attr title "SINR measured at feedback computation, UL"
attr unit dB
vector 333 TrainTopology.TCUUe[2].cellularNic.nrChannelModel[0] measuredSinrDl:vector ETV
attr recordingmode vector
attr source measuredSinrDl
attr title "SINR measured at feedback computation, DL"
attr unit dB
vector 334 TrainTopology.gnb2.cellularNic.mac receivedPacketFromLowerLayer:vector(packetBytes) ETV
attr interpolationmode none
attr recordingmode vector(packetBytes)
attr source receivedPacketFromLowerLayer
vector 335 TrainTopology.TCUUe[3].cellularNic.nrChannelModel[0] measuredSinrUl:vector ETV
attr recordingmode vector
attr source measuredSinrUl
attr title "SINR measured at feedback computation, UL"
attr unit dB
vector 336 TrainTopology.TCUUe[3].cellularNic.nrChannelModel[0] measuredSinrDl:vector ETV
attr recordingmode vector
attr source measuredSinrDl
attr title "SINR measured at feedback computation, DL"
attr unit dB
vector 337 TrainTopology.BCUUe[0].cellularNic.nrChannelModel[0] measuredSinrUl:vector ETV
attr recordingmode vector
attr source measuredSinrUl
attr title "SINR measured at feedback computation, UL"
attr unit dB
vector 338 TrainTopology.BCUUe[0].cellularNic.nrChannelModel[0] measuredSinrDl:vector ETV
attr recordingmode vector
attr source measuredSinrDl
attr title "SINR measured at feedback computation, DL"
attr unit dB
vector 339 TrainTopology.BCUUe[1].cellularNic.nrChannelModel[0] measuredSinrUl:vector ETV
attr recordingmode vector
attr source measuredSinrUl
attr title "SINR measured at feedback computation, UL"
attr unit dB
vector 340 TrainTopology.BCUUe[1].cellularNic.nrChannelModel[0] measuredSinrDl:vector ETV
attr recordingmode vector
attr source measuredSinrDl
attr title "SINR measured at feedback computation, DL"
attr unit dB
vector 341 TrainTopology.BCUUe[2].cellularNic.nrChannelModel[0] measuredSinrUl:vector ETV
attr recordingmode vector
attr source measuredSinrUl
attr title "SINR measured at feedback computation, UL"
attr unit dB
vector 342 TrainTopology.BCUUe[2].cellularNic.nrChannelModel[0] measuredSinrDl:vector ETV
attr recordingmode vector
attr source measuredSinrDl
attr title "SINR measured at feedback computation, DL"
attr unit dB
vector 343 TrainTopology.BCUUe[3].cellularNic.nrChannelModel[0] measuredSinrUl:vector ETV
attr recordingmode vector
attr source measuredSinrUl
attr title "SINR measured at feedback computation, UL"
attr unit dB
vector 344 TrainTopology.BCUUe[3].cellularNic.nrChannelModel[0] measuredSinrDl:vector ETV
attr recordingmode vector
attr source measuredSinrDl
attr title "SINR measured at feedback computation, DL"
attr unit dB
vector 345 TrainTopology.TCUClient[3].app[0].source packetLengths:vector ETV
attr interpolationmode none
attr moduledisplaypath TrainTopology.TCUClient[3].besteffort.source
attr recordingmode vector
attr source packetLength(packetPushed)
attr title "packet lengths"
attr unit b
vector 346 TrainTopology.TCUClient[3].app[0].io packetSent:vector(packetBytes) ETV
attr interpolationmode none
attr moduledisplaypath TrainTopology.TCUClient[3].besteffort.io
attr recordingmode vector(packetBytes)
attr source packetSent
attr title "packets sent, packetBytes"
vector 347 TrainTopology.TCUClient[3].udp packetSent:vector(packetBytes) ETV
attr interpolationmode none
attr recordingmode vector(packetBytes)
attr source packetSent
attr title "packets sent, packetBytes"
vector 348 TrainTopology.TCUClient[3].bridging.streamIdentifier.identifier incomingPacketLengths:vector ETV
attr interpolationmode none
attr recordingmode vector
attr source "packetLength(merge(packetPushedIn, packetPulledIn))"
attr title "incoming packet lengths"
attr unit b
vector 349 TrainTopology.TCUClient[3].bridging.streamIdentifier.identifier outgoingPacketLengths:vector ETV
attr interpolationmode none
attr recordingmode vector
attr source "packetLength(merge(packetPushedOut, packetPulledOut))"
attr title "outgoing packet lengths"
attr unit b
vector 350 TrainTopology.TCUClient[3].bridging.streamCoder.encoder incomingPacketLengths:vector ETV
attr interpolationmode none
attr recordingmode vector
attr source "packetLength(merge(packetPushedIn, packetPulledIn))"
attr title "incoming packet lengths"
attr unit b
vector 351 TrainTopology.TCUClient[3].bridging.streamCoder.encoder outgoingPacketLengths:vector ETV
attr interpolationmode none
attr recordingmode vector
attr source "packetLength(merge(packetPushedOut, packetPulledOut))"
attr title "outgoing packet lengths"
attr unit b
vector 352 TrainTopology.TCUClient[3].ieee8021q.qTagHeaderInserter incomingPacketLengths:vector ETV
attr interpolationmode none
attr recordingmode vector
attr source "packetLength(merge(packetPushedIn, packetPulledIn))"
attr title "incoming packet lengths"
attr unit b
vector 353 TrainTopology.TCUClient[3].ieee8021q.qTagHeaderInserter outgoingPacketLengths:vector ETV
attr interpolationmode none
attr recordingmode vector
attr source "packetLength(merge(packetPushedOut, packetPulledOut))"
attr title "outgoing packet lengths"
attr unit b
vector 354 TrainTopology.TCUClient[3].ethernet.macHeaderInserter incomingPacketLengths:vector ETV
attr interpolationmode none
attr recordingmode vector
attr source "packetLength(merge(packetPushedIn, packetPulledIn))"
attr title "incoming packet lengths"
attr unit b
vector 355 TrainTopology.TCUClient[3].ethernet.macHeaderInserter outgoingPacketLengths:vector ETV
attr interpolationmode none
attr recordingmode vector
attr source "packetLength(merge(packetPushedOut, packetPulledOut))"
attr title "outgoing packet lengths"
attr unit b
vector 356 TrainTopology.TCUClient[3].ethernet.paddingInserter incomingPacketLengths:vector ETV
attr interpolationmode none
attr recordingmode vector
attr source "packetLength(merge(packetPushedIn, packetPulledIn))"
attr title "incoming packet lengths"
attr unit b
vector 357 TrainTopology.TCUClient[3].ethernet.paddingInserter outgoingPacketLengths:vector ETV
attr interpolationmode none
attr recordingmode vector
attr source "packetLength(merge(packetPushedOut, packetPulledOut))"
attr title "outgoing packet lengths"
attr unit b
vector 358 TrainTopology.TCUClient[3].ethernet.fcsInserter incomingPacketLengths:vector ETV
attr interpolationmode none
attr recordingmode vector
attr source "packetLength(merge(packetPushedIn, packetPulledIn))"
attr title "incoming packet lengths"
attr unit b
vector 359 TrainTopology.TCUClient[3].ethernet.fcsInserter outgoingPacketLengths:vector ETV
attr interpolationmode none
attr recordingmode vector
attr source "packetLength(merge(packetPushedOut, packetPulledOut))"
attr title "outgoing packet lengths"
attr unit b
vector 360 TrainTopology.TCUClient[3].eth[0].macLayer.queue incomingPacketLengths:vector ETV
attr interpolationmode none
attr recordingmode vector
attr source packetLength(packetPushStarted)
attr title "incoming packet lengths"
attr unit b
vector 361 TrainTopology.TCUClient[3].eth[0].macLayer.queue queueLength:vector ETV
attr autoWarmupFilter false
attr interpolationmode sample-hold
attr recordingmode vector
attr source "warmup(atomic(constant0(packetPushEnded) + count(packetPushStarted) - count(packetPulled) - count(packetRemoved) - count(packetDropped)))"
attr title "queue length"
attr unit pk
vector 362 TrainTopology.TCUClient[3].eth[0].macLayer.queue queueBitLength:vector ETV
attr autoWarmupFilter false
attr interpolationmode sample-hold
attr recordingmode vector
attr source "warmup(atomic(constant0(packetPushEnded) + sum(packetLength(packetPushStarted)) - sum(packetLength(packetPulled)) - sum(packetLength(packetRemoved)) - sum(packetLength(packetDropped))))"
attr title "queue bit length"
attr unit b
vector 363 TrainTopology.TCUClient[3].eth[0].macLayer.queue queueingTime:vector ETV
attr interpolationmode none
attr recordingmode vector
attr source queueingTime(packetPulled)
attr title "queueing times"
attr unit s
vector 364 TrainTopology.TCUClient[3].eth[0].macLayer.queue outgoingPacketLengths:vector ETV
attr interpolationmode none
attr recordingmode vector
attr source packetLength(packetPulled)
attr title "outgoing packet lengths"
attr unit b
vector 365 TrainTopology.TCUClient[3].eth[0].macLayer.server incomingPacketLengths:vector ETV
attr interpolationmode none
attr recordingmode vector
attr source packetLength(packetPulled)
attr title "incoming packet lengths"
attr unit b
vector 366 TrainTopology.TCUClient[3].eth[0].macLayer.server outgoingPacketLengths:vector ETV
attr interpolationmode none
attr recordingmode vector
attr source packetLength(packetPushed)
attr title "outgoing packet lengths"
attr unit b
vector 367 TrainTopology.TCUClient[3].eth[0].macLayer.outboundEmitter incomingPacketLengths:vector ETV
attr interpolationmode none
attr recordingmode vector
attr source "packetLength(merge(packetPushedIn, packetPulledIn))"
attr title "incoming packet lengths"
attr unit b
vector 368 TrainTopology.TCUClient[3].eth[0].macLayer.outboundEmitter outgoingPacketLengths:vector ETV
attr interpolationmode none
attr recordingmode vector
attr source "packetLength(merge(packetPushedOut, packetPulledOut))"
attr title "outgoing packet lengths"
attr unit b
vector 369 TrainTopology.TCUClient[3].eth[0].phyLayer.phyHeaderInserter incomingPacketLengths:vector ETV
attr interpolationmode none
attr recordingmode vector
attr source "packetLength(merge(packetPushedIn, packetPulledIn))"
attr title "incoming packet lengths"
attr unit b
vector 370 TrainTopology.TCUClient[3].eth[0].phyLayer.phyHeaderInserter outgoingPacketLengths:vector ETV
attr interpolationmode none
attr recordingmode vector
attr source "packetLength(merge(packetPushedOut, packetPulledOut))"
attr title "outgoing packet lengths"
attr unit b
[...]
186	822228 22 9282 9282 0.13202882 0.13202882 1 0 0 0 0
1236	822250 37 9282 9282 0.13202882 0.13202882 1 999.10018539553 999.10018539553 999.10018539553 998201.18045738
1249	822287 37 9282 9282 0.13202882 0.13202882 1 63942.411865314 63942.411865314 63942.411865314 4088632035.1534
1250	822324 37 9282 9282 0.13202882 0.13202882 1 63942.411865314 63942.411865314 63942.411865314 4088632035.1534
1251	822361 37 9282 9282 0.13202882 0.13202882 1 63942.411865314 63942.411865314 63942.411865314 4088632035.1534
1252	822398 37 9282 9282 0.13202882 0.13202882 1 63942.411865314 63942.411865314 63942.411865314 4088632035.1534
1260	822435 37 9282 9282 0.13202882 0.13202882 1 71935.213348478 71935.213348478 71935.213348478 5174674919.4911
1261	822472 37 9282 9282 0.13202882 0.13202882 1 135877.62521379 135877.62521379 135877.62521379 18462729033.74
1262	822509 37 9282 9282 0.13202882 0.13202882 1 135877.62521379 135877.62521379 135877.62521379 18462729033.74
1263	822546 37 9282 9282 0.13202882 0.13202882 1 143870.42669696 143870.42669696 143870.42669696 20698699677.964
1282	822583 37 9282 9282 0.13202882 0.13202882 1 73433.863626571 73433.863626571 73433.863626571 5392532327.1259
1306	822620 37 9282 9282 0.13202882 0.13202882 1 63942.411865314 63942.411865314 63942.411865314 4088632035.1534
1307	822657 37 9282 9282 0.13202882 0.13202882 1 47956.808898985 47956.808898985 47956.808898985 2299855519.7738
1308	822694 37 9282 9282 0.13202882 0.13202882 1 47956.808898985 47956.808898985 47956.808898985 2299855519.7738
1313	822731 37 9282 9282 0.13202882 0.13202882 1 63942.411865314 63942.411865314 63942.411865314 4088632035.1534
1315	822768 37 9282 9282 0.13202882 0.13202882 1 63942.411865314 63942.411865314 63942.411865314 4088632035.1534
1316	822805 37 9282 9282 0.13202882 0.13202882 1 63942.411865314 63942.411865314 63942.411865314 4088632035.1534
1324	822842 37 9282 9282 0.13202882 0.13202882 1 71935.213348478 71935.213348478 71935.213348478 5174674919.4911
1325	822879 37 9282 9282 0.13202882 0.13202882 1 53951.410011359 53951.410011359 53951.410011359 2910754642.2137
1344	822916 37 9282 9282 0.13202882 0.13202882 1 62943.311679918 62943.311679918 62943.311679918 3961860485.2353
1368	822953 37 9282 9282 0.13202882 0.13202882 1 47956.808898985 47956.808898985 47956.808898985 2299855519.7738
1369	822990 37 9282 9282 0.13202882 0.13202882 1 31971.205932657 31971.205932657 31971.205932657 1022158008.7884
1370	823027 37 9282 9282 0.13202882 0.13202882 1 31971.205932657 31971.205932657 31971.205932657 1022158008.7884
1375	823064 37 9282 9282 0.13202882 0.13202882 1 47956.808898985 47956.808898985 47956.808898985 2299855519.7738
1377	823101 37 9282 9282 0.13202882 0.13202882 1 47956.808898985 47956.808898985 47956.808898985 2299855519.7738
1378	823138 37 9282 9282 0.13202882 0.13202882 1 47956.808898985 47956.808898985 47956.808898985 2299855519.7738
1386	823175 37 9282 9282 0.13202882 0.13202882 1 53951.410011359 53951.410011359 53951.410011359 2910754642.2137
1387	823212 37 9282 9282 0.13202882 0.13202882 1 53951.410011359 53951.410011359 53951.410011359 2910754642.2137
1416	823249 37 9282 9282 0.13202882 0.13202882 1 47956.808898985 47956.808898985 47956.808898985 2299855519.7738
1417	823286 37 9282 9282 0.13202882 0.13202882 1 47956.808898985 47956.808898985 47956.808898985 2299855519.7738
1418	823323 37 9282 9282 0.13202882 0.13202882 1 47956.808898985 47956.808898985 47956.808898985 2299855519.7738
1419	823360 37 9282 9282 0.13202882 0.13202882 1 47956.808898985 47956.808898985 47956.808898985 2299855519.7738
1427	823397 37 9282 9282 0.13202882 0.13202882 1 53951.410011359 53951.410011359 53951.410011359 2910754642.2137
1428	823434 37 9282 9282 0.13202882 0.13202882 1 53951.410011359 53951.410011359 53951.410011359 2910754642.2137
1444	823471 37 9282 9282 0.13202882 0.13202882 1 47956.808898985 47956.808898985 47956.808898985 2299855519.7738
1445	823508 37 9282 9282 0.13202882 0.13202882 1 47956.808898985 47956.808898985 47956.808898985 2299855519.7738
1447	823545 37 9282 9282 0.13202882 0.13202882 1 47956.808898985 47956.808898985 47956.808898985 2299855519.7738
1448	823582 37 9282 9282 0.13202882 0.13202882 1 47956.808898985 47956.808898985 47956.808898985 2299855519.7738
1449	823619 37 9282 9282 0.13202882 0.13202882 1 47956.808898985 47956.808898985 47956.808898985 2299855519.7738
1454	823656 37 9282 9282 0.13202882 0.13202882 1 47956.808898985 47956.808898985 47956.808898985 2299855519.7738
1456	823693 37 9282 9282 0.13202882 0.13202882 1 47956.808898985 47956.808898985 47956.808898985 2299855519.7738
1457	823730 37 9282 9282 0.13202882 0.13202882 1 47956.808898985 47956.808898985 47956.808898985 2299855519.7738
1465	823767 37 9282 9282 0.13202882 0.13202882 1 47956.808898985 47956.808898985 47956.808898985 2299855519.7738
1470	823804 37 9282 9282 0.13202882 0.13202882 1 47956.808898985 47956.808898985 47956.808898985 2299855519.7738
1472	823841 37 9282 9282 0.13202882 0.13202882 1 47956.808898985 47956.808898985 47956.808898985 2299855519.7738
1473	823878 37 9282 9282 0.13202882 0.13202882 1 47956.808898985 47956.808898985 47956.808898985 2299855519.7738
1481	823915 37 9282 9282 0.13202882 0.13202882 1 53951.410011359 53951.410011359 53951.410011359 2910754642.2137
1482	823952 37 9282 9282 0.13202882 0.13202882 1 53951.410011359 53951.410011359 53951.410011359 2910754642.2137
1483	823989 37 9282 9282 0.13202882 0.13202882 1 53951.410011359 53951.410011359 53951.410011359 2910754642.2137
1499	824026 37 9282 9282 0.13202882 0.13202882 1 47956.808898985 47956.808898985 47956.808898985 2299855519.7738
1500	824063 37 9282 9282 0.13202882 0.13202882 1 47956.808898985 47956.808898985 47956.808898985 2299855519.7738
1501	824100 37 9282 9282 0.13202882 0.13202882 1 53951.410011359 53951.410011359 53951.410011359 2910754642.2137
1520	824137 37 9282 9282 0.13202882 0.13202882 1 31471.655839959 31471.655839959 31471.655839959 990465121.30883
1544	824174 37 9282 9282 0.13202882 0.13202882 1 47956.808898985 47956.808898985 47956.808898985 2299855519.7738
1545	824211 37 9282 9282 0.13202882 0.13202882 1 47956.808898985 47956.808898985 47956.808898985 2299855519.7738
1546	824248 37 9282 9282 0.13202882 0.13202882 1 47956.808898985 47956.808898985 47956.808898985 2299855519.7738
1551	824285 37 9282 9282 0.13202882 0.13202882 1 47956.808898985 47956.808898985 47956.808898985 2299855519.7738
1553	824322 37 9282 9282 0.13202882 0.13202882 1 47956.808898985 47956.808898985 47956.808898985 2299855519.7738
1554	824359 37 9282 9282 0.13202882 0.13202882 1 47956.808898985 47956.808898985 47956.808898985 2299855519.7738
1562	824396 37 9282 9282 0.13202882 0.13202882 1 47956.808898985 47956.808898985 47956.808898985 2299855519.7738
1567	824433 37 9282 9282 0.13202882 0.13202882 1 47956.808898985 47956.808898985 47956.808898985 2299855519.7738
1569	824470 37 9282 9282 0.13202882 0.13202882 1 47956.808898985 47956.808898985 47956.808898985 2299855519.7738
1570	824507 37 9282 9282 0.13202882 0.13202882 1 47956.808898985 47956.808898985 47956.808898985 2299855519.7738
1578	824544 37 9282 9282 0.13202882 0.13202882 1 53951.410011359 53951.410011359 53951.410011359 2910754642.2137
1579	824581 37 9282 9282 0.13202882 0.13202882 1 53951.410011359 53951.410011359 53951.410011359 2910754642.2137
1580	824618 37 9282 9282 0.13202882 0.13202882 1 101908.21891034 101908.21891034 101908.21891034 10385285081.479
1581	824655 37 9282 9282 0.13202882 0.13202882 1 101908.21891034 101908.21891034 101908.21891034 10385285081.479
1582	824692 37 9282 9282 0.13202882 0.13202882 1 749.32513904665 749.32513904665 749.32513904665 561488.16400728
1595	824729 37 9282 9282 0.13202882 0.13202882 1 47956.808898985 47956.808898985 47956.808898985 2299855519.7738
1596	824766 37 9282 9282 0.13202882 0.13202882 1 47956.808898985 47956.808898985 47956.808898985 2299855519.7738
1597	824803 37 9282 9282 0.13202882 0.13202882 1 47956.808898985 47956.808898985 47956.808898985 2299855519.7738
1598	824840 37 9282 9282 0.13202882 0.13202882 1 47956.808898985 47956.808898985 47956.808898985 2299855519.7738
1606	824877 37 9282 9282 0.13202882 0.13202882 1 53951.410011359 53951.410011359 53951.410011359 2910754642.2137
1607	824914 37 9282 9282 0.13202882 0.13202882 1 499.55009269776 499.55009269776 499.55009269776 249550.29511434
1620	824951 37 9282 9282 0.13202882 0.13202882 1 15985.602966328 15985.602966328 15985.602966328 255539502.19709
1621	824988 37 9282 9282 0.13202882 0.13202882 1 15985.602966328 15985.602966328 15985.602966328 255539502.19709
1622	825025 37 9282 9282 0.13202882 0.13202882 1 15985.602966328 15985.602966328 15985.602966328 255539502.19709
1623	825062 37 9282 9282 0.13202882 0.13202882 1 15985.602966328 15985.602966328 15985.602966328 255539502.19709
1631	825099 36 9282 9282 0.13202882 0.13202882 1 17983.80333712 17983.80333712 17983.80333712 323417182.46819
1632	825135 37 9282 9282 0.13202882 0.13202882 1 749.32513904665 749.32513904665 749.32513904665 561488.16400728
1645	825172 37 9282 9282 0.13202882 0.13202882 1 47956.808898985 47956.808898985 47956.808898985 2299855519.7738
1646	825209 37 9282 9282 0.13202882 0.13202882 1 47956.808898985 47956.808898985 47956.808898985 2299855519.7738
1647	825246 37 9282 9282 0.13202882 0.13202882 1 47956.808898985 47956.808898985 47956.808898985 2299855519.7738
1648	825283 37 9282 9282 0.13202882 0.13202882 1 47956.808898985 47956.808898985 47956.808898985 2299855519.7738
1656	825320 37 9282 9282 0.13202882 0.13202882 1 53951.410011359 53951.410011359 53951.410011359 2910754642.2137
1657	825357 36 9282 9282 0.13202882 0.13202882 1 37965.80704503 37965.80704503 37965.80704503 1441402504.5805
1674	825393 37 9282 9282 0.13202882 0.13202882 1 499.55009269776 499.55009269776 499.55009269776 249550.29511434
1675	825430 37 9282 9282 0.13202882 0.13202882 1 499.55009269776 499.55009269776 499.55009269776 249550.29511434
1676	825467 37 9282 9282 0.13202882 0.13202882 1 749.32513904665 749.32513904665 749.32513904665 561488.16400728
1689	825504 37 9282 9282 0.13202882 0.13202882 1 47956.808898985 47956.808898985 47956.808898985 2299855519.7738
1690	825541 37 9282 9282 0.13202882 0.13202882 1 47956.808898985 47956.808898985 47956.808898985 2299855519.7738
1691	825578 37 9282 9282 0.13202882 0.13202882 1 47956.808898985 47956.808898985 47956.808898985 2299855519.7738
1692	825615 37 9282 9282 0.13202882 0.13202882 1 47956.808898985 47956.808898985 47956.808898985 2299855519.7738
1700	825652 37 9282 9282 0.13202882 0.13202882 1 53951.410011359 53951.410011359 53951.410011359 2910754642.2137
1701	825689 37 9282 9282 0.13202882 0.13202882 1 499.55009269776 499.55009269776 499.55009269776 249550.29511434
1714	825726 37 9282 9282 0.13202882 0.13202882 1 15985.602966328 15985.602966328 15985.602966328 255539502.19709
1715	825763 37 9282 9282 0.13202882 0.13202882 1 15985.602966328 15985.602966328 15985.602966328 255539502.19709
1716	825800 37 9282 9282 0.13202882 0.13202882 1 15985.602966328 15985.602966328 15985.602966328 255539502.19709
1717	825837 37 9282 9282 0.13202882 0.13202882 1 15985.602966328 15985.602966328 15985.602966328 255539502.19709
1725	825874 36 9282 9282 0.13202882 0.13202882 1 17983.80333712 17983.80333712 17983.80333712 323417182.46819
1726	825910 36 9282 9282 0.13202882 0.13202882 1 37965.80704503 37965.80704503 37965.80704503 1441402504.5805
1743	825946 37 9282 9282 0.13202882 0.13202882 1 499.55009269776 499.55009269776 499.55009269776 249550.29511434
1744	825983 37 9282 9282 0.13202882 0.13202882 1 499.55009269776 499.55009269776 499.55009269776 249550.29511434
1745	826020 37 9282 9282 0.13202882 0.13202882 1 499.55009269776 499.55009269776 499.55009269776 249550.29511434
1758	826057 37 9282 9282 0.13202882 0.13202882 1 15985.602966328 15985.602966328 15985.602966328 255539502.19709
1759	826094 37 9282 9282 0.13202882 0.13202882 1 15985.602966328 15985.602966328 15985.602966328 255539502.19709
1760	826131 37 9282 9282 0.13202882 0.13202882 1 15985.602966328 15985.602966328 15985.602966328 255539502.19709
1761	826168 37 9282 9282 0.13202882 0.13202882 1 15985.602966328 15985.602966328 15985.602966328 255539502.19709
1769	826205 36 9282 9282 0.13202882 0.13202882 1 17983.80333712 17983.80333712 17983.80333712 323417182.46819
1774	826241 37 9282 9282 0.13202882 0.13202882 1 15985.602966328 15985.602966328 15985.602966328 255539502.19709
1779	826278 37 9282 9282 0.13202882 0.13202882 1 15985.602966328 15985.602966328 15985.602966328 255539502.19709
1789	826315 37 9282 9282 0.13202882 0.13202882 1 15985.602966328 15985.602966328 15985.602966328 255539502.19709
1794	826352 37 9282 9282 0.13202882 0.13202882 1 15985.602966328 15985.602966328 15985.602966328 255539502.19709
1804	826389 37 9282 9282 0.13202882 0.13202882 1 499.55009269776 499.55009269776 499.55009269776 249550.29511434
1817	826426 37 9282 9282 0.13202882 0.13202882 1 15985.602966328 15985.602966328 15985.602966328 255539502.19709
1818	826463 37 9282 9282 0.13202882 0.13202882 1 15985.602966328 15985.602966328 15985.602966328 255539502.19709
1819	826500 37 9282 9282 0.13202882 0.13202882 1 15985.602966328 15985.602966328 15985.602966328 255539502.19709
1820	826537 37 9282 9282 0.13202882 0.13202882 1 15985.602966328 15985.602966328 15985.602966328 255539502.19709
1828	826574 36 9282 9282 0.13202882 0.13202882 1 17983.80333712 17983.80333712 17983.80333712 323417182.46819
1846	826610 36 9282 9282 0.13202882 0.13202882 1 37965.80704503 37965.80704503 37965.80704503 1441402504.5805
1883	826646 37 9282 9282 0.13202882 0.13202882 1 249.77504634888 249.77504634888 249.77504634888 62387.573778586
1885	826683 37 9282 9282 0.13202882 0.13202882 1 249.77504634888 249.77504634888 249.77504634888 62387.573778586
1886	826720 39 9282 9282 0.1 0.13202882 2 0 0 0 0
1887	826759 39 9282 9282 0.1 0.13202882 2 0 0 0 0
1888	826798 39 9282 9282 0.1 0.13202882 2 0 0 0 0
1889	826837 39 9282 9282 0.1 0.13202882 2 0 0 0 0
1890	826876 39 9282 9282 0.1 0.13202882 2 0 0 0 0
1891	826915 39 9282 9282 0.1 0.13202882 2 0 0 0 0
1892	826954 39 9282 9282 0.1 0.13202882 2 0 0 0 0
1893	826993 39 9282 9282 0.1 0.13202882 2 0 0 0 0
1894	827032 39 9282 9282 0.1 0.13202882 2 0 0 0 0
1895	827071 39 9282 9282 0.1 0.13202882 2 0 0 0 0
1896	827110 39 9282 9282 0.1 0.13202882 2 0 0 0 0
1897	827149 39 9282 9282 0.1 0.13202882 2 0 0 0 0
1898	827188 39 9282 9282 0.1 0.13202882 2 0 0 0 0
1899	827227 39 9282 9282 0.1 0.13202882 2 0 0 0 0
1900	827266 39 9282 9282 0.1 0.13202882 2 0 0 0 0
1901	827305 39 9282 9282 0.1 0.13202882 2 0 0 0 0
1902	827344 39 9282 9282 0.1 0.13202882 2 0 0 0 0
1903	827383 39 9282 9282 0.1 0.13202882 2 0 0 0 0
1904	827422 39 9282 9282 0.1 0.13202882 2 0 0 0 0
1905	827461 39 9282 9282 0.1 0.13202882 2 0 0 0 0
1906	827500 39 9282 9282 0.1 0.13202882 2 0 0 0 0
1907	827539 39 9282 9282 0.1 0.13202882 2 0 0 0 0
1908	827578 39 9282 9282 0.1 0.13202882 2 0 0 0 0
1909	827617 39 9282 9282 0.1 0.13202882 2 0 0 0 0
1910	827656 39 9282 9282 0.1 0.13202882 2 0 0 0 0
1911	827695 39 9282 9282 0.1 0.13202882 2 0 0 0 0
1912	827734 39 9282 9282 0.1 0.13202882 2 0 0 0 0
1913	827773 39 9282 9282 0.1 0.13202882 2 0 0 0 0
1914	827812 39 9282 9282 0.1 0.13202882 2 0 0 0 0
1915	827851 39 9282 9282 0.1 0.13202882 2 0 0 0 0
1916	827890 39 9282 9282 0.1 0.13202882 2 0 0 0 0
1917	827929 39 9282 9282 0.1 0.13202882 2 0 0 0 0
1918	827968 39 9282 9282 0.1 0.13202882 2 0 0 0 0
1919	828007 39 9282 9282 0.1 0.13202882 2 0 0 0 0
1920	828046 42 9282 9282 0.1 0.13202882 2 0 5120 5120 26214400
1921	828088 42 9282 9282 0.1 0.13202882 2 0 5120 5120 26214400
1922	828130 39 9282 9282 0.1 0.13202882 2 0 0 0 0
1923	828169 39 9282 9282 0.1 0.13202882 2 0 0 0 0
1924	828208 39 9282 9282 0.1 0.13202882 2 0 0 0 0
1925	828247 39 9282 9282 0.1 0.13202882 2 0 0 0 0
1926	828286 39 9282 9282 0.1 0.13202882 2 0 0 0 0
1927	828325 39 9282 9282 0.1 0.13202882 2 0 0 0 0
1928	828364 39 9282 9282 0.1 0.13202882 2 0 0 0 0
1929	828403 39 9282 9282 0.1 0.13202882 2 0 0 0 0
1930	828442 39 9282 9282 0.1 0.13202882 2 0 0 0 0
1931	828481 39 9282 9282 0.1 0.13202882 2 0 0 0 0
1932	828520 39 9282 9282 0.1 0.13202882 2 0 0 0 0
1933	828559 39 9282 9282 0.1 0.13202882 2 0 0 0 0
1934	828598 39 9282 9282 0.1 0.13202882 2 0 0 0 0
1935	828637 42 9282 9282 0.1 0.13202882 2 0 5120 5120 26214400
1936	828679 42 9282 9282 0.1 0.13202882 2 0 5120 5120 26214400
1937	828721 39 9282 9282 0.1 0.13202882 2 0 0 0 0
1938	828760 39 9282 9282 0.1 0.13202882 2 0 0 0 0
1939	828799 39 9282 9282 0.1 0.13202882 2 0 0 0 0
1940	828838 39 9282 9282 0.1 0.13202882 2 0 0 0 0
1941	828877 39 9282 9282 0.1 0.13202882 2 0 0 0 0
1942	828916 39 9282 9282 0.1 0.13202882 2 0 0 0 0
1943	828955 39 9282 9282 0.1 0.13202882 2 0 0 0 0
1944	828994 43 9282 9282 0.1 0.13202882 2 0 64000 64000 4096000000
1945	829037 43 9282 9282 0.1 0.13202882 2 0 64000 64000 4096000000
1946	829080 39 9282 9282 0.1 0.13202882 2 0 0 0 0
1947	829119 39 9282 9282 0.1 0.13202882 2 0 0 0 0
1948	829158 39 9282 9282 0.1 0.13202882 2 0 0 0 0
1949	829197 39 9282 9282 0.1 0.13202882 2 0 0 0 0
1950	829236 43 9282 9282 0.1 0.13202882 2 0 64000 64000 4096000000
1951	829279 43 9282 9282 0.1 0.13202882 2 0 64000 64000 4096000000
1952	829322 39 9282 9282 0.1 0.13202882 2 0 0 0 0
1953	829361 39 9282 9282 0.1 0.13202882 2 0 0 0 0
1954	829400 39 9282 9282 0.1 0.13202882 2 0 0 0 0
1955	829439 39 9282 9282 0.1 0.13202882 2 0 0 0 0
1956	829478 39 9282 9282 0.1 0.13202882 2 0 0 0 0
1957	829517 39 9282 9282 0.1 0.13202882 2 0 0 0 0
1958	829556 39 9282 9282 0.1 0.13202882 2 0 0 0 0
1959	829595 39 9282 9282 0.1 0.13202882 2 0 0 0 0
1960	829634 39 9282 9282 0.1 0.13202882 2 0 0 0 0
1961	829673 39 9282 9282 0.1 0.13202882 2 0 0 0 0
1962	829712 39 9282 9282 0.1 0.13202882 2 0 0 0 0
1963	829751 39 9282 9282 0.1 0.13202882 2 0 0 0 0
1964	829790 39 9282 9282 0.1 0.13202882 2 0 0 0 0
1965	829829 39 9282 9282 0.1 0.13202882 2 0 0 0 0
1966	829868 39 9282 9282 0.1 0.13202882 2 0 0 0 0
1967	829907 39 9282 9282 0.1 0.13202882 2 0 0 0 0
1968	829946 39 9282 9282 0.1 0.13202882 2 0 0 0 0
1969	829985 39 9282 9282 0.1 0.13202882 2 0 0 0 0
1970	830024 39 9282 9282 0.1 0.13202882 2 0 0 0 0
1971	830063 39 9282 9282 0.1 0.13202882 2 0 0 0 0
1972	830102 39 9282 9282 0.1 0.13202882 2 0 0 0 0
1973	830141 39 9282 9282 0.1 0.13202882 2 0 0 0 0
1974	830180 39 9282 9282 0.1 0.13202882 2 0 0 0 0
1975	830219 39 9282 9282 0.1 0.13202882 2 0 0 0 0
1976	830258 39 9282 9282 0.1 0.13202882 2 0 0 0 0
1977	830297 39 9282 9282 0.1 0.13202882 2 0 0 0 0
1978	830336 39 9282 9282 0.1 0.13202882 2 0 0 0 0
1979	830375 39 9282 9282 0.1 0.13202882 2 0 0 0 0
1980	830414 39 9282 9282 0.1 0.13202882 2 0 0 0 0
1981	830453 39 9282 9282 0.1 0.13202882 2 0 0 0 0
1982	830492 39 9282 9282 0.1 0.13202882 2 0 0 0 0
1983	830531 39 9282 9282 0.1 0.13202882 2 0 0 0 0
1984	830570 39 9282 9282 0.1 0.13202882 2 0 0 0 0
1985	830609 39 9282 9282 0.1 0.13202882 2 0 0 0 0
1986	830648 39 9282 9282 0.1 0.13202882 2 0 0 0 0
1987	830687 39 9282 9282 0.1 0.13202882 2 0 0 0 0
1988	830726 39 9282 9282 0.1 0.13202882 2 0 0 0 0
1989	830765 39 9282 9282 0.1 0.13202882 2 0 0 0 0
1990	830804 39 9282 9282 0.1 0.13202882 2 0 0 0 0
1991	830843 39 9282 9282 0.1 0.13202882 2 0 0 0 0
1992	830882 39 9282 9282 0.1 0.13202882 2 0 0 0 0
1993	830921 39 9282 9282 0.1 0.13202882 2 0 0 0 0
1994	830960 39 9282 9282 0.1 0.13202882 2 0 0 0 0
1995	830999 39 9282 9282 0.1 0.13202882 2 0 0 0 0
1996	831038 39 9282 9282 0.1 0.13202882 2 0 0 0 0
1997	831077 39 9282 9282 0.1 0.13202882 2 0 0 0 0
1998	831116 39 9282 9282 0.1 0.13202882 2 0 0 0 0
1999	831155 39 9282 9282 0.1 0.13202882 2 0 0 0 0
2000	831194 39 9282 9282 0.1 0.13202882 2 0 0 0 0
2001	831233 39 9282 9282 0.1 0.13202882 2 0 0 0 0
2002	831272 39 9282 9282 0.1 0.13202882 2 0 0 0 0
2003	831311 39 9282 9282 0.1 0.13202882 2 0 0 0 0
2004	831350 39 9282 9282 0.1 0.13202882 2 0 0 0 0
2005	831389 39 9282 9282 0.1 0.13202882 2 0 0 0 0
2006	831428 39 9282 9282 0.1 0.13202882 2 0 0 0 0
2007	831467 39 9282 9282 0.1 0.13202882 2 0 0 0 0
2008	831506 39 9282 9282 0.1 0.13202882 2 0 0 0 0

