version 3
run General-0-20240229-03:45:13-4779
attr configname General
attr datetime 20240229-03:45:13
attr datetimef 20240229-034513
attr experiment General
attr inifile omnetpp.ini
attr iterationvars ""
attr iterationvarsd ""
attr iterationvarsf ""
attr measurement ""
attr network TrainTopology
attr processid 4779
attr repetition 0
attr replication #0
attr resultdir results
attr runnumber 0
attr seedset 0
config image-path ../../inet4.5/images:../../simu5G/images
config network TrainTopology
config *.gnb*.numX2Apps 1
config *.gnb*.x2App[*].server.localPort "5000 + ancestorIndex(1)"
config *.gnb1.x2App[0].client.connectAddress "\"gnb2%x2ppp0\""
config *.gnb2.x2App[0].client.connectAddress "\"gnb1%x2ppp0\""
config *.server.ipv4.routingTable.routingFile "\"server.mrt\""
config *.*.dstt.destAddress "\"server\""
config *.*Ue[0].masterId 0
config *.*Ue[0].nrMacCellId 1
config *.*Ue[0].nrMasterId 1
config *.*Ue[1].masterId 0
config *.*Ue[1].nrMacCellId 1
config *.*Ue[1].nrMasterId 1
config *.*Ue[2].masterId 0
config *.*Ue[2].nrMacCellId 1
config *.*Ue[2].nrMasterId 2
config *.*Ue[3].masterId 0
config *.*Ue[3].nrMacCellId 1
config *.*Ue[3].nrMasterId 2
config *.carrierAggregation.numComponentCarriers 1
config *.carrierAggregation.componentCarrier[0].numerologyIndex 0
config *.carrierAggregation.componentCarrier[0].carrierFrequency 2GHz
config *.carrierAggregation.componentCarrier[0].numBands 1
config *.gnb*.cellularNic.numCarriers 1
config *.gnb*.cellularNic.channelModel[0].componentCarrierIndex 0
config *.*Ue[*].cellularNic.numCarriers 1
config *.*Ue[*].cellularNic.nrChannelModel[0].componentCarrierIndex 0
config *.T*Client*.numApps 1
config *.T*Client*.app[*].typename UdpApp
config *.T*Client*.app[0].display-name besteffort
config *.T*Client*.app[*].io.destAddress "\"server\""
config *.T*Client*.app[0].io.destPort 1000
config *.T*Client*.app[0].io.localPort 1000
config *.T*Client*.app[0].source.packetLength 1B
config *.T*Client*.app[0].source.productionInterval 10ms
config *.T*Client*.app[*].source.initialProductionOffset "uniform(10ms, 50ms)"
config *.B*Client*.numApps 1
config *.B*Client*.app[*].typename UdpApp
config *.B*Client*.app[0].display-name video
config *.B*Client*.app[*].io.destAddress "\"server\""
config *.B*Client*.app[0].io.destPort 1001
config *.B*Client*.app[0].io.localPort 1000
config *.B*Client*.app[0].source.packetLength 2B
config *.B*Client*.app[0].source.productionInterval 30ms
config *.B*Client*.app[*].source.initialProductionOffset "uniform(10ms, 50ms)"
config *.server.numApps 2
config *.server.app[*].typename UdpEchoApp
config *.server.app[0].display-name besteffort
config *.server.app[1].display-name video
config *.server.app[0].localPort 1000
config *.server.app[1].localPort 1001
config *.*.hasOutgoingStreams true
config *.*.hasIncomingStreams true
config *.*Client*.bridging.streamIdentifier.identifier.mapping "[{stream: \"besteffort\", packetFilter: expr(udp.destPort == 1000)},\n\t\t\t\t\t\t\t\t\t\t\t\t\t\t\t{stream: \"video\", packetFilter: expr(udp.destPort == 1001)}]"
config *.*Client*.bridging.streamCoder.encoder.mapping "[{stream: \"besteffort\", pcp: 0},\n\t\t\t\t\t\t\t\t\t\t\t\t\t{stream: \"video\", pcp: 4}]"
config *.server.bridging.streamIdentifier.identifier.mapping "[{stream: \"besteffort\", packetFilter: expr(udp.destPort == 1000)},\n\t\t\t\t\t\t\t\t\t\t\t\t\t\t\t{stream: \"video\", packetFilter: expr(udp.destPort == 1001)}]"
config *.server.bridging.streamCoder.encoder.mapping "[{stream: \"besteffort\", pcp: 0},\n\t\t\t\t\t\t\t\t\t\t\t\t\t{stream: \"video\", pcp: 4}]"
config *.switch*.bridging.streamCoder.decoder.mapping "[{pcp: 0, stream: \"besteffort\"},\n                                                 {pcp: 4, stream: \"video\"}]"
config *.switch*.bridging.streamCoder.encoder.mapping "[{stream: \"besteffort\", pcp: 0},\n\t\t\t\t\t\t\t\t\t\t\t\t\t{stream: \"video\", pcp: 4}]"
config *.switch*.hasIngressTrafficFiltering true
config *.switch*.bridging.streamFilter.ingress.typename SimpleIeee8021qFilter
config *.switch*.bridging.streamFilter.ingress.numStreams 2
config *.switch*.bridging.streamFilter.ingress.classifier.mapping "{besteffort: 0, video: 1}"
config *.switch*.bridging.streamFilter.ingress.*[0].display-name besteffort
config *.switch*.bridging.streamFilter.ingress.*[1].display-name video
config *.switch*.bridging.streamFilter.ingress.meter[*].typename EligibilityTimeMeter
config *.switch*.bridging.streamFilter.ingress.meter[*].committedInformationRate 20Mbps
config *.switch*.bridging.streamFilter.ingress.meter[*].committedBurstSize 10kB
config *.switch*.bridging.streamFilter.ingress.filter[*].typename EligibilityTimeFilter
config *.switch*.hasEgressTrafficShaping true
config *.switch*.bridging.directionReverser.reverser.excludeEncapsulationProtocols "[\"ieee8021qctag\"]"
config *.switch*.eth[*].macLayer.queue.numTrafficClasses 2
config *.switch*.eth[*].macLayer.queue.*[0].display-name besteffort
config *.switch*.eth[*].macLayer.queue.*[1].display-name video
config *.switch*.eth[*].macLayer.queue.queue[0].typename EligibilityTimeQueue
config *.switch*.eth[*].macLayer.queue.queue[1].typename EligibilityTimeQueue
config *.switch*.eth[*].macLayer.queue.transmissionSelectionAlgorithm[0].typename Ieee8021qAsynchronousShaper
config *.switch*.eth[*].macLayer.queue.transmissionSelectionAlgorithm[0].idleSlope 42.68Mbps
config *.switch*.eth[*].macLayer.queue.transmissionSelectionAlgorithm[1].typename Ieee8021qAsynchronousShaper
config *.switch*.eth[*].macLayer.queue.transmissionSelectionAlgorithm[1].idleSlope 21.34Mbps

scalar TrainTopology.gnb1.x2App[0].client ums 1452
scalar TrainTopology.gnb2.x2App[0].client ums 1452
par TrainTopology.TCUClient[0].ethg$o[0].channel typename "\"inet.node.ethernet.Eth100M\""
par TrainTopology.TCUClient[0].ethg$o[0].channel disabled false
attr mutable ""
par TrainTopology.TCUClient[0].ethg$o[0].channel delay 5e-08s
attr mutable ""
attr unit s
par TrainTopology.TCUClient[0].ethg$o[0].channel datarate 1e+08bps
attr mutable ""
attr unit bps
par TrainTopology.TCUClient[0].ethg$o[0].channel ber 0
attr mutable ""
par TrainTopology.TCUClient[0].ethg$o[0].channel per 0
attr mutable ""
par TrainTopology.TCUClient[0].ethg$o[0].channel length 10m
attr unit m
par TrainTopology.TCUUe[0].phys$o.channel typename "\"inet.node.ethernet.Eth100M\""
par TrainTopology.TCUUe[0].phys$o.channel disabled false
attr mutable ""
par TrainTopology.TCUUe[0].phys$o.channel delay 5e-08s
attr mutable ""
attr unit s
par TrainTopology.TCUUe[0].phys$o.channel datarate 1e+08bps
attr mutable ""
attr unit bps
par TrainTopology.TCUUe[0].phys$o.channel ber 0
attr mutable ""
par TrainTopology.TCUUe[0].phys$o.channel per 0
attr mutable ""
par TrainTopology.TCUUe[0].phys$o.channel length 10m
attr unit m
par TrainTopology.TCUClient[1].ethg$o[0].channel typename "\"inet.node.ethernet.Eth100M\""
par TrainTopology.TCUClient[1].ethg$o[0].channel disabled false
attr mutable ""
par TrainTopology.TCUClient[1].ethg$o[0].channel delay 5e-08s
attr mutable ""
attr unit s
par TrainTopology.TCUClient[1].ethg$o[0].channel datarate 1e+08bps
attr mutable ""
attr unit bps
par TrainTopology.TCUClient[1].ethg$o[0].channel ber 0
attr mutable ""
par TrainTopology.TCUClient[1].ethg$o[0].channel per 0
attr mutable ""
par TrainTopology.TCUClient[1].ethg$o[0].channel length 10m
attr unit m
par TrainTopology.TCUUe[1].phys$o.channel typename "\"inet.node.ethernet.Eth100M\""
par TrainTopology.TCUUe[1].phys$o.channel disabled false
attr mutable ""
par TrainTopology.TCUUe[1].phys$o.channel delay 5e-08s
attr mutable ""
attr unit s
par TrainTopology.TCUUe[1].phys$o.channel datarate 1e+08bps
attr mutable ""
attr unit bps
par TrainTopology.TCUUe[1].phys$o.channel ber 0
attr mutable ""
par TrainTopology.TCUUe[1].phys$o.channel per 0
attr mutable ""
par TrainTopology.TCUUe[1].phys$o.channel length 10m
attr unit m
par TrainTopology.TCUClient[2].ethg$o[0].channel typename "\"inet.node.ethernet.Eth100M\""
par TrainTopology.TCUClient[2].ethg$o[0].channel disabled false
attr mutable ""
par TrainTopology.TCUClient[2].ethg$o[0].channel delay 5e-08s
attr mutable ""
attr unit s
par TrainTopology.TCUClient[2].ethg$o[0].channel datarate 1e+08bps
attr mutable ""
attr unit bps
par TrainTopology.TCUClient[2].ethg$o[0].channel ber 0
attr mutable ""
par TrainTopology.TCUClient[2].ethg$o[0].channel per 0
attr mutable ""
par TrainTopology.TCUClient[2].ethg$o[0].channel length 10m
attr unit m
par TrainTopology.TCUUe[2].phys$o.channel typename "\"inet.node.ethernet.Eth100M\""
par TrainTopology.TCUUe[2].phys$o.channel disabled false
attr mutable ""
par TrainTopology.TCUUe[2].phys$o.channel delay 5e-08s
attr mutable ""
attr unit s
par TrainTopology.TCUUe[2].phys$o.channel datarate 1e+08bps
attr mutable ""
attr unit bps
par TrainTopology.TCUUe[2].phys$o.channel ber 0
attr mutable ""
par TrainTopology.TCUUe[2].phys$o.channel per 0
attr mutable ""
par TrainTopology.TCUUe[2].phys$o.channel length 10m
attr unit m
par TrainTopology.TCUClient[3].ethg$o[0].channel typename "\"inet.node.ethernet.Eth100M\""
par TrainTopology.TCUClient[3].ethg$o[0].channel disabled false
attr mutable ""
par TrainTopology.TCUClient[3].ethg$o[0].channel delay 5e-08s
attr mutable ""
attr unit s
par TrainTopology.TCUClient[3].ethg$o[0].channel datarate 1e+08bps
attr mutable ""
attr unit bps
par TrainTopology.TCUClient[3].ethg$o[0].channel ber 0
attr mutable ""
par TrainTopology.TCUClient[3].ethg$o[0].channel per 0
attr mutable ""
par TrainTopology.TCUClient[3].ethg$o[0].channel length 10m
attr unit m
par TrainTopology.TCUUe[3].phys$o.channel typename "\"inet.node.ethernet.Eth100M\""
par TrainTopology.TCUUe[3].phys$o.channel disabled false
attr mutable ""
par TrainTopology.TCUUe[3].phys$o.channel delay 5e-08s
attr mutable ""
attr unit s
par TrainTopology.TCUUe[3].phys$o.channel datarate 1e+08bps
attr mutable ""
attr unit bps
par TrainTopology.TCUUe[3].phys$o.channel ber 0
attr mutable ""
par TrainTopology.TCUUe[3].phys$o.channel per 0
attr mutable ""
par TrainTopology.TCUUe[3].phys$o.channel length 10m
attr unit m
par TrainTopology.BCUClient[0].ethg$o[0].channel typename "\"inet.node.ethernet.Eth100M\""
par TrainTopology.BCUClient[0].ethg$o[0].channel disabled false
attr mutable ""
par TrainTopology.BCUClient[0].ethg$o[0].channel delay 5e-08s
attr mutable ""
attr unit s
par TrainTopology.BCUClient[0].ethg$o[0].channel datarate 1e+08bps
attr mutable ""
attr unit bps
par TrainTopology.BCUClient[0].ethg$o[0].channel ber 0
attr mutable ""
par TrainTopology.BCUClient[0].ethg$o[0].channel per 0
attr mutable ""
par TrainTopology.BCUClient[0].ethg$o[0].channel length 10m
attr unit m
par TrainTopology.BCUUe[0].phys$o.channel typename "\"inet.node.ethernet.Eth100M\""
par TrainTopology.BCUUe[0].phys$o.channel disabled false
attr mutable ""
par TrainTopology.BCUUe[0].phys$o.channel delay 5e-08s
attr mutable ""
attr unit s
par TrainTopology.BCUUe[0].phys$o.channel datarate 1e+08bps
attr mutable ""
attr unit bps
par TrainTopology.BCUUe[0].phys$o.channel ber 0
attr mutable ""
par TrainTopology.BCUUe[0].phys$o.channel per 0
attr mutable ""
par TrainTopology.BCUUe[0].phys$o.channel length 10m
attr unit m
par TrainTopology.BCUClient[1].ethg$o[0].channel typename "\"inet.node.ethernet.Eth100M\""
par TrainTopology.BCUClient[1].ethg$o[0].channel disabled false
attr mutable ""
par TrainTopology.BCUClient[1].ethg$o[0].channel delay 5e-08s
attr mutable ""
attr unit s
par TrainTopology.BCUClient[1].ethg$o[0].channel datarate 1e+08bps
attr mutable ""
attr unit bps
par TrainTopology.BCUClient[1].ethg$o[0].channel ber 0
attr mutable ""
par TrainTopology.BCUClient[1].ethg$o[0].channel per 0
attr mutable ""
par TrainTopology.BCUClient[1].ethg$o[0].channel length 10m
attr unit m
par TrainTopology.BCUUe[1].phys$o.channel typename "\"inet.node.ethernet.Eth100M\""
par TrainTopology.BCUUe[1].phys$o.channel disabled false
attr mutable ""
par TrainTopology.BCUUe[1].phys$o.channel delay 5e-08s
attr mutable ""
attr unit s
par TrainTopology.BCUUe[1].phys$o.channel datarate 1e+08bps
attr mutable ""
attr unit bps
par TrainTopology.BCUUe[1].phys$o.channel ber 0
attr mutable ""
par TrainTopology.BCUUe[1].phys$o.channel per 0
attr mutable ""
par TrainTopology.BCUUe[1].phys$o.channel length 10m
attr unit m
par TrainTopology.BCUClient[2].ethg$o[0].channel typename "\"inet.node.ethernet.Eth100M\""
par TrainTopology.BCUClient[2].ethg$o[0].channel disabled false
attr mutable ""
par TrainTopology.BCUClient[2].ethg$o[0].channel delay 5e-08s
attr mutable ""
attr unit s
par TrainTopology.BCUClient[2].ethg$o[0].channel datarate 1e+08bps
attr mutable ""
attr unit bps
par TrainTopology.BCUClient[2].ethg$o[0].channel ber 0
attr mutable ""
par TrainTopology.BCUClient[2].ethg$o[0].channel per 0
attr mutable ""
par TrainTopology.BCUClient[2].ethg$o[0].channel length 10m
attr unit m
par TrainTopology.BCUUe[2].phys$o.channel typename "\"inet.node.ethernet.Eth100M\""
par TrainTopology.BCUUe[2].phys$o.channel disabled false
attr mutable ""
par TrainTopology.BCUUe[2].phys$o.channel delay 5e-08s
attr mutable ""
attr unit s
par TrainTopology.BCUUe[2].phys$o.channel datarate 1e+08bps
attr mutable ""
attr unit bps
par TrainTopology.BCUUe[2].phys$o.channel ber 0
attr mutable ""
par TrainTopology.BCUUe[2].phys$o.channel per 0
attr mutable ""
par TrainTopology.BCUUe[2].phys$o.channel length 10m
attr unit m
par TrainTopology.BCUClient[3].ethg$o[0].channel typename "\"inet.node.ethernet.Eth100M\""
par TrainTopology.BCUClient[3].ethg$o[0].channel disabled false
attr mutable ""
par TrainTopology.BCUClient[3].ethg$o[0].channel delay 5e-08s
attr mutable ""
attr unit s
par TrainTopology.BCUClient[3].ethg$o[0].channel datarate 1e+08bps
attr mutable ""
attr unit bps
par TrainTopology.BCUClient[3].ethg$o[0].channel ber 0
attr mutable ""
par TrainTopology.BCUClient[3].ethg$o[0].channel per 0
attr mutable ""
par TrainTopology.BCUClient[3].ethg$o[0].channel length 10m
attr unit m
par TrainTopology.BCUUe[3].phys$o.channel typename "\"inet.node.ethernet.Eth100M\""
par TrainTopology.BCUUe[3].phys$o.channel disabled false
attr mutable ""
par TrainTopology.BCUUe[3].phys$o.channel delay 5e-08s
attr mutable ""
attr unit s
par TrainTopology.BCUUe[3].phys$o.channel datarate 1e+08bps
attr mutable ""
attr unit bps
par TrainTopology.BCUUe[3].phys$o.channel ber 0
attr mutable ""
par TrainTopology.BCUUe[3].phys$o.channel per 0
attr mutable ""
par TrainTopology.BCUUe[3].phys$o.channel length 10m
attr unit m
par TrainTopology.switch1.ethg$o[0].channel typename "\"inet.node.ethernet.Eth100M\""
par TrainTopology.switch1.ethg$o[0].channel disabled false
attr mutable ""
par TrainTopology.switch1.ethg$o[0].channel delay 5e-08s
attr mutable ""
attr unit s
par TrainTopology.switch1.ethg$o[0].channel datarate 1e+08bps
attr mutable ""
attr unit bps
par TrainTopology.switch1.ethg$o[0].channel ber 0
attr mutable ""
par TrainTopology.switch1.ethg$o[0].channel per 0
attr mutable ""
par TrainTopology.switch1.ethg$o[0].channel length 10m
attr unit m
par TrainTopology.switch3.ethg$o[0].channel typename "\"inet.node.ethernet.Eth100M\""
par TrainTopology.switch3.ethg$o[0].channel disabled false
attr mutable ""
par TrainTopology.switch3.ethg$o[0].channel delay 5e-08s
attr mutable ""
attr unit s
par TrainTopology.switch3.ethg$o[0].channel datarate 1e+08bps
attr mutable ""
attr unit bps
par TrainTopology.switch3.ethg$o[0].channel ber 0
attr mutable ""
par TrainTopology.switch3.ethg$o[0].channel per 0
attr mutable ""
par TrainTopology.switch3.ethg$o[0].channel length 10m
attr unit m
par TrainTopology.switch3.ethg$o[1].channel typename "\"inet.node.ethernet.Eth100M\""
par TrainTopology.switch3.ethg$o[1].channel disabled false
attr mutable ""
par TrainTopology.switch3.ethg$o[1].channel delay 5e-08s
attr mutable ""
attr unit s
par TrainTopology.switch3.ethg$o[1].channel datarate 1e+08bps
attr mutable ""
attr unit bps
par TrainTopology.switch3.ethg$o[1].channel ber 0
attr mutable ""
par TrainTopology.switch3.ethg$o[1].channel per 0
attr mutable ""
par TrainTopology.switch3.ethg$o[1].channel length 10m
attr unit m
par TrainTopology.switch2.ethg$o[0].channel typename "\"inet.node.ethernet.Eth100M\""
par TrainTopology.switch2.ethg$o[0].channel disabled false
attr mutable ""
par TrainTopology.switch2.ethg$o[0].channel delay 5e-08s
attr mutable ""
attr unit s
par TrainTopology.switch2.ethg$o[0].channel datarate 1e+08bps
attr mutable ""
attr unit bps
par TrainTopology.switch2.ethg$o[0].channel ber 0
attr mutable ""
par TrainTopology.switch2.ethg$o[0].channel per 0
attr mutable ""
par TrainTopology.switch2.ethg$o[0].channel length 10m
attr unit m
par TrainTopology.switch1.ethg$o[1].channel typename "\"inet.node.ethernet.Eth100M\""
par TrainTopology.switch1.ethg$o[1].channel disabled false
attr mutable ""
par TrainTopology.switch1.ethg$o[1].channel delay 5e-08s
attr mutable ""
attr unit s
par TrainTopology.switch1.ethg$o[1].channel datarate 1e+08bps
attr mutable ""
attr unit bps
par TrainTopology.switch1.ethg$o[1].channel ber 0
attr mutable ""
par TrainTopology.switch1.ethg$o[1].channel per 0
attr mutable ""
par TrainTopology.switch1.ethg$o[1].channel length 10m
attr unit m
par TrainTopology.upf1.filterGate$o.channel typename "\"inet.node.ethernet.Eth100M\""
par TrainTopology.upf1.filterGate$o.channel disabled false
attr mutable ""
par TrainTopology.upf1.filterGate$o.channel delay 5e-08s
attr mutable ""
attr unit s
par TrainTopology.upf1.filterGate$o.channel datarate 1e+08bps
attr mutable ""
attr unit bps
par TrainTopology.upf1.filterGate$o.channel ber 0
attr mutable ""
par TrainTopology.upf1.filterGate$o.channel per 0
attr mutable ""
par TrainTopology.upf1.filterGate$o.channel length 10m
attr unit m
par TrainTopology.switch2.ethg$o[1].channel typename "\"inet.node.ethernet.Eth100M\""
par TrainTopology.switch2.ethg$o[1].channel disabled false
attr mutable ""
par TrainTopology.switch2.ethg$o[1].channel delay 5e-08s
attr mutable ""
attr unit s
par TrainTopology.switch2.ethg$o[1].channel datarate 1e+08bps
attr mutable ""
attr unit bps
par TrainTopology.switch2.ethg$o[1].channel ber 0
attr mutable ""
par TrainTopology.switch2.ethg$o[1].channel per 0
attr mutable ""
par TrainTopology.switch2.ethg$o[1].channel length 10m
attr unit m
par TrainTopology.upf2.filterGate$o.channel typename "\"inet.node.ethernet.Eth100M\""
par TrainTopology.upf2.filterGate$o.channel disabled false
attr mutable ""
par TrainTopology.upf2.filterGate$o.channel delay 5e-08s
attr mutable ""
attr unit s
par TrainTopology.upf2.filterGate$o.channel datarate 1e+08bps
attr mutable ""
attr unit bps
par TrainTopology.upf2.filterGate$o.channel ber 0
attr mutable ""
par TrainTopology.upf2.filterGate$o.channel per 0
attr mutable ""
par TrainTopology.upf2.filterGate$o.channel length 10m
attr unit m
par TrainTopology.gnb1.x2$o[0].channel typename "\"inet.node.ethernet.Eth100M\""
par TrainTopology.gnb1.x2$o[0].channel disabled false
attr mutable ""
par TrainTopology.gnb1.x2$o[0].channel delay 5e-08s
attr mutable ""
attr unit s
par TrainTopology.gnb1.x2$o[0].channel datarate 1e+08bps
attr mutable ""
attr unit bps
par TrainTopology.gnb1.x2$o[0].channel ber 0
attr mutable ""
par TrainTopology.gnb1.x2$o[0].channel per 0
attr mutable ""
par TrainTopology.gnb1.x2$o[0].channel length 10m
attr unit m
par TrainTopology.gnb2.x2$o[0].channel typename "\"inet.node.ethernet.Eth100M\""
par TrainTopology.gnb2.x2$o[0].channel disabled false
attr mutable ""
par TrainTopology.gnb2.x2$o[0].channel delay 5e-08s
attr mutable ""
attr unit s
par TrainTopology.gnb2.x2$o[0].channel datarate 1e+08bps
attr mutable ""
attr unit bps
par TrainTopology.gnb2.x2$o[0].channel ber 0
attr mutable ""
par TrainTopology.gnb2.x2$o[0].channel per 0
attr mutable ""
par TrainTopology.gnb2.x2$o[0].channel length 10m
attr unit m
par TrainTopology.gnb1.ppp$o.channel typename "\"inet.node.ethernet.Eth100M\""
par TrainTopology.gnb1.ppp$o.channel disabled false
attr mutable ""
par TrainTopology.gnb1.ppp$o.channel delay 5e-08s
attr mutable ""
attr unit s
par TrainTopology.gnb1.ppp$o.channel datarate 1e+08bps
attr mutable ""
attr unit bps
par TrainTopology.gnb1.ppp$o.channel ber 0
attr mutable ""
par TrainTopology.gnb1.ppp$o.channel per 0
attr mutable ""
par TrainTopology.gnb1.ppp$o.channel length 10m
attr unit m
par TrainTopology.upf1.pppg$o[0].channel typename "\"inet.node.ethernet.Eth100M\""
par TrainTopology.upf1.pppg$o[0].channel disabled false
attr mutable ""
par TrainTopology.upf1.pppg$o[0].channel delay 5e-08s
attr mutable ""
attr unit s
par TrainTopology.upf1.pppg$o[0].channel datarate 1e+08bps
attr mutable ""
attr unit bps
par TrainTopology.upf1.pppg$o[0].channel ber 0
attr mutable ""
par TrainTopology.upf1.pppg$o[0].channel per 0
attr mutable ""
par TrainTopology.upf1.pppg$o[0].channel length 10m
attr unit m
par TrainTopology.gnb2.ppp$o.channel typename "\"inet.node.ethernet.Eth100M\""
par TrainTopology.gnb2.ppp$o.channel disabled false
attr mutable ""
par TrainTopology.gnb2.ppp$o.channel delay 5e-08s
attr mutable ""
attr unit s
par TrainTopology.gnb2.ppp$o.channel datarate 1e+08bps
attr mutable ""
attr unit bps
par TrainTopology.gnb2.ppp$o.channel ber 0
attr mutable ""
par TrainTopology.gnb2.ppp$o.channel per 0
attr mutable ""
par TrainTopology.gnb2.ppp$o.channel length 10m
attr unit m
par TrainTopology.upf2.pppg$o[0].channel typename "\"inet.node.ethernet.Eth100M\""
par TrainTopology.upf2.pppg$o[0].channel disabled false
attr mutable ""
par TrainTopology.upf2.pppg$o[0].channel delay 5e-08s
attr mutable ""
attr unit s
par TrainTopology.upf2.pppg$o[0].channel datarate 1e+08bps
attr mutable ""
attr unit bps
par TrainTopology.upf2.pppg$o[0].channel ber 0
attr mutable ""
par TrainTopology.upf2.pppg$o[0].channel per 0
attr mutable ""
par TrainTopology.upf2.pppg$o[0].channel length 10m
attr unit m
par TrainTopology.switch3.ethg$o[2].channel typename "\"inet.node.ethernet.Eth100M\""
par TrainTopology.switch3.ethg$o[2].channel disabled false
attr mutable ""
par TrainTopology.switch3.ethg$o[2].channel delay 5e-08s
attr mutable ""
attr unit s
par TrainTopology.switch3.ethg$o[2].channel datarate 1e+08bps
attr mutable ""
attr unit bps
par TrainTopology.switch3.ethg$o[2].channel ber 0
attr mutable ""
par TrainTopology.switch3.ethg$o[2].channel per 0
attr mutable ""
par TrainTopology.switch3.ethg$o[2].channel length 10m
attr unit m
par TrainTopology.server.ethg$o[0].channel typename "\"inet.node.ethernet.Eth100M\""
par TrainTopology.server.ethg$o[0].channel disabled false
attr mutable ""
par TrainTopology.server.ethg$o[0].channel delay 5e-08s
attr mutable ""
attr unit s
par TrainTopology.server.ethg$o[0].channel datarate 1e+08bps
attr mutable ""
attr unit bps
par TrainTopology.server.ethg$o[0].channel ber 0
attr mutable ""
par TrainTopology.server.ethg$o[0].channel per 0
attr mutable ""
par TrainTopology.server.ethg$o[0].channel length 10m
attr unit m
par TrainTopology.visualizer.sceneVisualizer typename "\"inet.visualizer.canvas.scene.SceneCanvasVisualizer\""
par TrainTopology.visualizer.sceneVisualizer visualizationTargetModule "\"^.^\""
par TrainTopology.visualizer.sceneVisualizer visualizationSubjectModule "\"^.^\""
par TrainTopology.visualizer.sceneVisualizer tags "\"\""
par TrainTopology.visualizer.sceneVisualizer physicalEnvironmentModule "\"physicalEnvironment\""
par TrainTopology.visualizer.sceneVisualizer networkNodeVisualizerModule "\"^.networkNodeVisualizer\""
par TrainTopology.visualizer.sceneVisualizer axisLength "nan m"
attr mutable ""
attr unit m
par TrainTopology.visualizer.sceneVisualizer animationSpeed 0
par TrainTopology.visualizer.sceneVisualizer sceneMinX "nan m"
attr unit m
par TrainTopology.visualizer.sceneVisualizer sceneMinY "nan m"
attr unit m
par TrainTopology.visualizer.sceneVisualizer sceneMinZ "nan m"
attr unit m
par TrainTopology.visualizer.sceneVisualizer sceneMaxX "nan m"
attr unit m
par TrainTopology.visualizer.sceneVisualizer sceneMaxY "nan m"
attr unit m
par TrainTopology.visualizer.sceneVisualizer sceneMaxZ "nan m"
attr unit m
par TrainTopology.visualizer.sceneVisualizer zIndex 0
par TrainTopology.visualizer.sceneVisualizer viewAngle "\"x right y down z out\""
attr mutable ""
par TrainTopology.visualizer.sceneVisualizer viewScale "\"1 1\""
attr mutable ""
par TrainTopology.visualizer.sceneVisualizer viewTranslation "\"0 0\""
attr mutable ""
par TrainTopology.visualizer.sceneVisualizer descriptionFigure "\"\""
par TrainTopology.visualizer.physicalEnvironmentVisualizer typename "\"inet.visualizer.canvas.environment.PhysicalEnvironmentCanvasVisualizer\""
par TrainTopology.visualizer.physicalEnvironmentVisualizer visualizationTargetModule "\"^.^\""
par TrainTopology.visualizer.physicalEnvironmentVisualizer visualizationSubjectModule "\"^.^\""
par TrainTopology.visualizer.physicalEnvironmentVisualizer tags "\"\""
par TrainTopology.visualizer.physicalEnvironmentVisualizer physicalEnvironmentModule "\"physicalEnvironment\""
par TrainTopology.visualizer.physicalEnvironmentVisualizer displayObjects true
par TrainTopology.visualizer.physicalEnvironmentVisualizer zIndex 0
par TrainTopology.visualizer.networkNodeVisualizer typename "\"inet.visualizer.canvas.scene.NetworkNodeCanvasVisualizer\""
par TrainTopology.visualizer.networkNodeVisualizer visualizationTargetModule "\"^.^\""
par TrainTopology.visualizer.networkNodeVisualizer visualizationSubjectModule "\"^.^\""
par TrainTopology.visualizer.networkNodeVisualizer tags "\"\""
par TrainTopology.visualizer.networkNodeVisualizer nodeFilter "\"*\""
attr mutable ""
par TrainTopology.visualizer.networkNodeVisualizer annotationSpacing 4
par TrainTopology.visualizer.networkNodeVisualizer placementPenalty 10
par TrainTopology.visualizer.networkNodeVisualizer zIndex 0
par TrainTopology.visualizer.networkConnectionVisualizer typename "\"inet.visualizer.canvas.scene.NetworkConnectionCanvasVisualizer\""
par TrainTopology.visualizer.networkConnectionVisualizer visualizationTargetModule "\"^.^\""
par TrainTopology.visualizer.networkConnectionVisualizer visualizationSubjectModule "\"^.^\""
par TrainTopology.visualizer.networkConnectionVisualizer tags "\"\""
par TrainTopology.visualizer.networkConnectionVisualizer displayNetworkConnections true
par TrainTopology.visualizer.networkConnectionVisualizer nodeFilter "\"\""
attr mutable ""
par TrainTopology.visualizer.networkConnectionVisualizer lineColor "\"black\""
par TrainTopology.visualizer.networkConnectionVisualizer lineStyle "\"solid\""
par TrainTopology.visualizer.networkConnectionVisualizer lineWidth 1
par TrainTopology.visualizer.networkConnectionVisualizer zIndex 0
par TrainTopology.visualizer.mobilityVisualizer typename "\"inet.visualizer.canvas.mobility.MobilityCanvasVisualizer\""
par TrainTopology.visualizer.mobilityVisualizer visualizationTargetModule "\"^.^\""
par TrainTopology.visualizer.mobilityVisualizer visualizationSubjectModule "\"^.^\""
par TrainTopology.visualizer.mobilityVisualizer tags "\"\""
par TrainTopology.visualizer.mobilityVisualizer networkNodeVisualizerModule "\"^.networkNodeVisualizer\""
par TrainTopology.visualizer.mobilityVisualizer displayMobility true
par TrainTopology.visualizer.mobilityVisualizer animationSpeed 0
par TrainTopology.visualizer.mobilityVisualizer moduleFilter "\"**.mobility\""
attr mutable ""
par TrainTopology.visualizer.mobilityVisualizer displayPositions false
par TrainTopology.visualizer.mobilityVisualizer positionCircleRadius 4
par TrainTopology.visualizer.mobilityVisualizer positionCircleLineWidth 1
par TrainTopology.visualizer.mobilityVisualizer positionCircleLineColor "\"dark\""
attr enum light,dark
par TrainTopology.visualizer.mobilityVisualizer positionCircleFillColor "\"dark\""
attr enum light,dark
par TrainTopology.visualizer.mobilityVisualizer displayOrientations false
par TrainTopology.visualizer.mobilityVisualizer orientationPieRadius 32
par TrainTopology.visualizer.mobilityVisualizer orientationPieSize 0.2
par TrainTopology.visualizer.mobilityVisualizer orientationPieOpacity 0.25
par TrainTopology.visualizer.mobilityVisualizer orientationLineColor "\"black\""
par TrainTopology.visualizer.mobilityVisualizer orientationLineStyle "\"solid\""
par TrainTopology.visualizer.mobilityVisualizer orientationLineWidth 1
par TrainTopology.visualizer.mobilityVisualizer orientationFillColor "\"blue\""
par TrainTopology.visualizer.mobilityVisualizer displayVelocities false
par TrainTopology.visualizer.mobilityVisualizer velocityArrowScale 1
par TrainTopology.visualizer.mobilityVisualizer velocityLineColor "\"black\""
par TrainTopology.visualizer.mobilityVisualizer velocityLineStyle "\"solid\""
par TrainTopology.visualizer.mobilityVisualizer velocityLineWidth 1
par TrainTopology.visualizer.mobilityVisualizer displayMovementTrails false
par TrainTopology.visualizer.mobilityVisualizer movementTrailLineColor "\"dark\""
attr enum light,dark
par TrainTopology.visualizer.mobilityVisualizer movementTrailLineStyle "\"solid\""
par TrainTopology.visualizer.mobilityVisualizer movementTrailLineWidth 1
par TrainTopology.visualizer.mobilityVisualizer trailLength 100
par TrainTopology.visualizer.mobilityVisualizer zIndex 0
par TrainTopology.visualizer.statisticVisualizer typename "\"inet.visualizer.canvas.common.StatisticCanvasVisualizer\""
par TrainTopology.visualizer.statisticVisualizer visualizationTargetModule "\"^.^\""
par TrainTopology.visualizer.statisticVisualizer visualizationSubjectModule "\"^.^\""
par TrainTopology.visualizer.statisticVisualizer tags "\"\""
par TrainTopology.visualizer.statisticVisualizer networkNodeVisualizerModule "\"^.networkNodeVisualizer\""
par TrainTopology.visualizer.statisticVisualizer displayStatistics true
par TrainTopology.visualizer.statisticVisualizer signalName "\"\""
par TrainTopology.visualizer.statisticVisualizer statisticName "\"\""
par TrainTopology.visualizer.statisticVisualizer statisticUnit "\"\""
par TrainTopology.visualizer.statisticVisualizer statisticExpression "\"\""
par TrainTopology.visualizer.statisticVisualizer sourceFilter "\"**\""
attr mutable ""
par TrainTopology.visualizer.statisticVisualizer format "\"%n: %v %u\""
attr mutable ""
par TrainTopology.visualizer.statisticVisualizer unit "\"\""
par TrainTopology.visualizer.statisticVisualizer font "\"<default>\""
par TrainTopology.visualizer.statisticVisualizer textColor "\"black\""
par TrainTopology.visualizer.statisticVisualizer backgroundColor "\"white\""
par TrainTopology.visualizer.statisticVisualizer opacity 1
par TrainTopology.visualizer.statisticVisualizer placementHint "\"top\""
par TrainTopology.visualizer.statisticVisualizer placementPriority 0
par TrainTopology.visualizer.statisticVisualizer zIndex 10
par TrainTopology.visualizer.statisticVisualizer propertyName "\"\""
par TrainTopology.visualizer.statisticVisualizer propertyIndex "\"\""
par TrainTopology.visualizer.infoVisualizer typename "\"inet.visualizer.canvas.common.InfoCanvasVisualizer\""
par TrainTopology.visualizer.infoVisualizer visualizationTargetModule "\"^.^\""
par TrainTopology.visualizer.infoVisualizer visualizationSubjectModule "\"^.^\""
par TrainTopology.visualizer.infoVisualizer tags "\"\""
par TrainTopology.visualizer.infoVisualizer networkNodeVisualizerModule "\"^.networkNodeVisualizer\""
par TrainTopology.visualizer.infoVisualizer displayInfos true
par TrainTopology.visualizer.infoVisualizer modules "\"\""
attr mutable ""
par TrainTopology.visualizer.infoVisualizer format "\"%t\""
attr mutable ""
par TrainTopology.visualizer.infoVisualizer font "\"<default>\""
par TrainTopology.visualizer.infoVisualizer textColor "\"black\""
par TrainTopology.visualizer.infoVisualizer backgroundColor "\"white\""
par TrainTopology.visualizer.infoVisualizer opacity 1
par TrainTopology.visualizer.infoVisualizer placementHint "\"top\""
par TrainTopology.visualizer.infoVisualizer placementPriority 0
par TrainTopology.visualizer.infoVisualizer zIndex 10
par TrainTopology.visualizer.energyStorageVisualizer typename "\"inet.visualizer.canvas.power.EnergyStorageCanvasVisualizer\""
par TrainTopology.visualizer.energyStorageVisualizer visualizationTargetModule "\"^.^\""
par TrainTopology.visualizer.energyStorageVisualizer visualizationSubjectModule "\"^.^\""
par TrainTopology.visualizer.energyStorageVisualizer tags "\"\""
par TrainTopology.visualizer.energyStorageVisualizer networkNodeVisualizerModule "\"^.networkNodeVisualizer\""
par TrainTopology.visualizer.energyStorageVisualizer displayEnergyStorages false
par TrainTopology.visualizer.energyStorageVisualizer energyStorageFilter "\"**\""
par TrainTopology.visualizer.energyStorageVisualizer color "\"green\""
par TrainTopology.visualizer.energyStorageVisualizer width 8
par TrainTopology.visualizer.energyStorageVisualizer height 24
par TrainTopology.visualizer.energyStorageVisualizer spacing 2
par TrainTopology.visualizer.energyStorageVisualizer placementHint "\"right\""
par TrainTopology.visualizer.energyStorageVisualizer placementPriority 0
par TrainTopology.visualizer.energyStorageVisualizer zIndex 10
par TrainTopology.visualizer.mediumVisualizer typename "\"inet.visualizer.canvas.physicallayer.MediumCanvasVisualizer\""
par TrainTopology.visualizer.mediumVisualizer visualizationTargetModule "\"^.^\""
par TrainTopology.visualizer.mediumVisualizer visualizationSubjectModule "\"^.^\""
par TrainTopology.visualizer.mediumVisualizer tags "\"\""
par TrainTopology.visualizer.mediumVisualizer mediumModule "\"radioMedium\""
par TrainTopology.visualizer.mediumVisualizer networkNodeVisualizerModule "\"^.networkNodeVisualizer\""
par TrainTopology.visualizer.mediumVisualizer nodeFilter "\"*\""
attr mutable ""
par TrainTopology.visualizer.mediumVisualizer interfaceFilter "\"*\""
attr mutable ""
par TrainTopology.visualizer.mediumVisualizer packetFilter "(omnetpp::cValueHolder)holder: \"*\""
attr mutable ""
par TrainTopology.visualizer.mediumVisualizer displaySignals false
par TrainTopology.visualizer.mediumVisualizer signalColor "\"dark\""
attr enum light,dark
par TrainTopology.visualizer.mediumVisualizer signalPropagationAnimationSpeed "nan "
attr mutable ""
par TrainTopology.visualizer.mediumVisualizer signalPropagationAnimationTime 1s
attr unit s
par TrainTopology.visualizer.mediumVisualizer signalPropagationAdditionalTime 0s
attr unit s
par TrainTopology.visualizer.mediumVisualizer signalTransmissionAnimationSpeed "nan "
attr mutable ""
par TrainTopology.visualizer.mediumVisualizer signalTransmissionAnimationTime 1s
attr unit s
par TrainTopology.visualizer.mediumVisualizer signalAnimationSpeedChangeTimeMode "\"realTime\""
attr enum realTime,animationTime,simulationTime
par TrainTopology.visualizer.mediumVisualizer signalAnimationSpeedChangeTime 1s
attr unit s
par TrainTopology.visualizer.mediumVisualizer displaySignalDepartures false
par TrainTopology.visualizer.mediumVisualizer signalDepartureImage "\"misc/signal_departure.png\""
par TrainTopology.visualizer.mediumVisualizer signalDeparturePlacementHint "\"topCenter\""
par TrainTopology.visualizer.mediumVisualizer signalDeparturePlacementPriority 1
par TrainTopology.visualizer.mediumVisualizer displaySignalArrivals false
par TrainTopology.visualizer.mediumVisualizer signalArrivalImage "\"misc/signal_arrival.png\""
par TrainTopology.visualizer.mediumVisualizer signalArrivalPlacementHint "\"topCenter\""
par TrainTopology.visualizer.mediumVisualizer signalArrivalPlacementPriority -1
par TrainTopology.visualizer.mediumVisualizer displayCommunicationRanges false
par TrainTopology.visualizer.mediumVisualizer communicationRangeLineColor "\"blue\""
par TrainTopology.visualizer.mediumVisualizer communicationRangeLineStyle "\"solid\""
par TrainTopology.visualizer.mediumVisualizer communicationRangeLineWidth 1
par TrainTopology.visualizer.mediumVisualizer displayInterferenceRanges false
par TrainTopology.visualizer.mediumVisualizer interferenceRangeLineColor "\"gray\""
par TrainTopology.visualizer.mediumVisualizer interferenceRangeLineStyle "\"solid\""
par TrainTopology.visualizer.mediumVisualizer interferenceRangeLineWidth 1
par TrainTopology.visualizer.mediumVisualizer autoPowerAxis true
par TrainTopology.visualizer.mediumVisualizer signalMinPower "inf dBmW"
attr unit dBmW
par TrainTopology.visualizer.mediumVisualizer signalMaxPower 0dBmW
attr unit dBmW
par TrainTopology.visualizer.mediumVisualizer signalMinPowerDensity "inf dBmWpMHz"
attr unit dBmWpMHz
par TrainTopology.visualizer.mediumVisualizer signalMaxPowerDensity "-inf dBmWpMHz"
attr unit dBmWpMHz
par TrainTopology.visualizer.mediumVisualizer autoTimeAxis true
par TrainTopology.visualizer.mediumVisualizer signalMinTime 0s
attr unit s
par TrainTopology.visualizer.mediumVisualizer signalMaxTime 0s
attr unit s
par TrainTopology.visualizer.mediumVisualizer autoFrequencyAxis true
par TrainTopology.visualizer.mediumVisualizer signalMinFrequency "inf Hz"
attr unit Hz
par TrainTopology.visualizer.mediumVisualizer signalMaxFrequency "-inf Hz"
attr unit Hz
par TrainTopology.visualizer.mediumVisualizer displayMainPowerDensityMap false
par TrainTopology.visualizer.mediumVisualizer mainPowerDensityMapPixmapDensity 1
par TrainTopology.visualizer.mediumVisualizer mainPowerDensityMapMinX 0
par TrainTopology.visualizer.mediumVisualizer mainPowerDensityMapMaxX "nan "
par TrainTopology.visualizer.mediumVisualizer mainPowerDensityMapMinY 0
par TrainTopology.visualizer.mediumVisualizer mainPowerDensityMapMaxY "nan "
par TrainTopology.visualizer.mediumVisualizer mainPowerDensityMapZ 0
par TrainTopology.visualizer.mediumVisualizer mainPowerDensityMapFigureXTickCount 3
par TrainTopology.visualizer.mediumVisualizer mainPowerDensityMapFigureYTickCount 3
par TrainTopology.visualizer.mediumVisualizer displayPowerDensityMaps false
par TrainTopology.visualizer.mediumVisualizer powerDensityMapMode "\"auto\""
attr enum total,signal,auto
par TrainTopology.visualizer.mediumVisualizer powerDensityMapPixelMode "\"mean\""
attr enum sample,partition,mean
par TrainTopology.visualizer.mediumVisualizer powerDensityMapApproximationSize 10
par TrainTopology.visualizer.mediumVisualizer powerDensityMapCenterFrequency "nan Hz"
attr mutable ""
attr unit Hz
par TrainTopology.visualizer.mediumVisualizer powerDensityMapBandwidth 0Hz
attr mutable ""
attr unit Hz
par TrainTopology.visualizer.mediumVisualizer powerDensityMapFigureWidth 200
par TrainTopology.visualizer.mediumVisualizer powerDensityMapFigureHeight 120
par TrainTopology.visualizer.mediumVisualizer powerDensityMapPixmapWidth 200
par TrainTopology.visualizer.mediumVisualizer powerDensityMapPixmapHeight 120
par TrainTopology.visualizer.mediumVisualizer powerDensityMapZ 0
par TrainTopology.visualizer.mediumVisualizer powerDensityMapFigureXTickCount 3
par TrainTopology.visualizer.mediumVisualizer powerDensityMapFigureYTickCount 3
par TrainTopology.visualizer.mediumVisualizer displaySpectrums false
par TrainTopology.visualizer.mediumVisualizer spectrumMode "\"auto\""
attr enum total,signal,auto
par TrainTopology.visualizer.mediumVisualizer spectrumFigureWidth 200
par TrainTopology.visualizer.mediumVisualizer spectrumFigureHeight 120
par TrainTopology.visualizer.mediumVisualizer spectrumFigureXTickCount 3
par TrainTopology.visualizer.mediumVisualizer spectrumFigureYTickCount 5
par TrainTopology.visualizer.mediumVisualizer spectrumFigureInterpolationSize 5
par TrainTopology.visualizer.mediumVisualizer spectrumPlacementHint "\"bottomCenter\""
par TrainTopology.visualizer.mediumVisualizer spectrumPlacementPriority -1
par TrainTopology.visualizer.mediumVisualizer displaySpectrograms false
par TrainTopology.visualizer.mediumVisualizer spectrogramMode "\"auto\""
attr enum total,signal,auto
par TrainTopology.visualizer.mediumVisualizer spectrogramPixelMode "\"mean\""
attr enum sample,partition,mean
par TrainTopology.visualizer.mediumVisualizer spectrogramFigureWidth 200
par TrainTopology.visualizer.mediumVisualizer spectrogramFigureHeight 120
par TrainTopology.visualizer.mediumVisualizer spectrogramPixmapWidth 200
par TrainTopology.visualizer.mediumVisualizer spectrogramPixmapHeight 120
par TrainTopology.visualizer.mediumVisualizer spectrogramFigureXTickCount 3
par TrainTopology.visualizer.mediumVisualizer spectrogramFigureYTickCount 5
par TrainTopology.visualizer.mediumVisualizer spectrogramPlacementHint "\"bottomCenter\""
par TrainTopology.visualizer.mediumVisualizer spectrogramPlacementPriority -1
par TrainTopology.visualizer.mediumVisualizer zIndex 0
par TrainTopology.visualizer.mediumVisualizer signalShape "\"ring\""
attr enum ring,sphere
par TrainTopology.visualizer.mediumVisualizer signalOpacity 0.5
par TrainTopology.visualizer.mediumVisualizer signalRingCount 20
par TrainTopology.visualizer.mediumVisualizer signalRingSize 50m
attr unit m
par TrainTopology.visualizer.mediumVisualizer signalFadingDistance 50m
attr unit m
par TrainTopology.visualizer.mediumVisualizer signalFadingFactor 1.2
par TrainTopology.visualizer.mediumVisualizer signalWaveCount 20
par TrainTopology.visualizer.mediumVisualizer signalWaveLength 50m
attr unit m
par TrainTopology.visualizer.mediumVisualizer signalWaveWidth 10m
attr unit m
par TrainTopology.visualizer.mediumVisualizer signalWaveFadingAnimationSpeedFactor 1
par TrainTopology.visualizer.mediumVisualizer displayCommunicationHeat false
par TrainTopology.visualizer.obstacleLossVisualizer typename "\"inet.visualizer.canvas.physicallayer.TracingObstacleLossCanvasVisualizer\""
par TrainTopology.visualizer.obstacleLossVisualizer visualizationTargetModule "\"^.^\""
par TrainTopology.visualizer.obstacleLossVisualizer visualizationSubjectModule "\"^.^\""
par TrainTopology.visualizer.obstacleLossVisualizer tags "\"\""
par TrainTopology.visualizer.obstacleLossVisualizer displayIntersections false
par TrainTopology.visualizer.obstacleLossVisualizer intersectionLineColor "\"red\""
par TrainTopology.visualizer.obstacleLossVisualizer intersectionLineStyle "\"solid\""
par TrainTopology.visualizer.obstacleLossVisualizer intersectionLineWidth 1
par TrainTopology.visualizer.obstacleLossVisualizer displayFaceNormalVectors false
par TrainTopology.visualizer.obstacleLossVisualizer faceNormalLineColor "\"grey\""
par TrainTopology.visualizer.obstacleLossVisualizer faceNormalLineStyle "\"solid\""
par TrainTopology.visualizer.obstacleLossVisualizer faceNormalLineWidth 1
par TrainTopology.visualizer.obstacleLossVisualizer fadeOutMode "\"realTime\""
attr enum realTime,animationTime,simulationTime
par TrainTopology.visualizer.obstacleLossVisualizer fadeOutTime 1s
attr unit s
par TrainTopology.visualizer.obstacleLossVisualizer fadeOutAnimationSpeed 0
par TrainTopology.visualizer.obstacleLossVisualizer zIndex 0
par TrainTopology.visualizer.packetDropVisualizer typename "\"inet.visualizer.canvas.common.PacketDropCanvasVisualizer\""
par TrainTopology.visualizer.packetDropVisualizer visualizationTargetModule "\"^.^\""
par TrainTopology.visualizer.packetDropVisualizer visualizationSubjectModule "\"^.^\""
par TrainTopology.visualizer.packetDropVisualizer tags "\"\""
par TrainTopology.visualizer.packetDropVisualizer displayPacketDrops false
par TrainTopology.visualizer.packetDropVisualizer nodeFilter "\"*\""
attr mutable ""
par TrainTopology.visualizer.packetDropVisualizer interfaceFilter "\"*\""
attr mutable ""
par TrainTopology.visualizer.packetDropVisualizer packetFilter "(omnetpp::cValueHolder)holder: \"*\""
attr mutable ""
par TrainTopology.visualizer.packetDropVisualizer detailsFilter "\"*\""
attr mutable ""
par TrainTopology.visualizer.packetDropVisualizer icon "\"msg/packet_s\""
par TrainTopology.visualizer.packetDropVisualizer iconTintAmount 1
par TrainTopology.visualizer.packetDropVisualizer iconTintColor "\"dark\""
par TrainTopology.visualizer.packetDropVisualizer labelFormat "\"%n\""
attr mutable ""
par TrainTopology.visualizer.packetDropVisualizer labelFont "\"<default>\""
par TrainTopology.visualizer.packetDropVisualizer labelColor "\"black\""
par TrainTopology.visualizer.packetDropVisualizer fadeOutMode "\"realTime\""
attr enum realTime,animationTime,simulationTime
par TrainTopology.visualizer.packetDropVisualizer fadeOutTime 1s
attr unit s
par TrainTopology.visualizer.packetDropVisualizer fadeOutAnimationSpeed 0
par TrainTopology.visualizer.packetDropVisualizer zIndex 10
par TrainTopology.visualizer.packetDropVisualizer dx 32
par TrainTopology.visualizer.packetDropVisualizer dy 64
par TrainTopology.visualizer.packetFlowVisualizer typename "\"inet.visualizer.canvas.flow.PacketFlowCanvasVisualizer\""
par TrainTopology.visualizer.packetFlowVisualizer visualizationTargetModule "\"^.^\""
par TrainTopology.visualizer.packetFlowVisualizer visualizationSubjectModule "\"^.^\""
par TrainTopology.visualizer.packetFlowVisualizer tags "\"\""
par TrainTopology.visualizer.packetFlowVisualizer displayRoutes false
par TrainTopology.visualizer.packetFlowVisualizer startPathSignal "\"packetFlowStarted\""
par TrainTopology.visualizer.packetFlowVisualizer extendPathSignal "\"packetReceivedFromLower\""
par TrainTopology.visualizer.packetFlowVisualizer endPathSignal "\"packetFlowEnded\""
par TrainTopology.visualizer.packetFlowVisualizer nodeFilter "\"*\""
attr mutable ""
par TrainTopology.visualizer.packetFlowVisualizer packetFilter "(omnetpp::cValueHolder)holder: \"*\""
attr mutable ""
par TrainTopology.visualizer.packetFlowVisualizer lineColor "\"dark\""
attr enum light,dark
par TrainTopology.visualizer.packetFlowVisualizer lineStyle "\"dashed\""
par TrainTopology.visualizer.packetFlowVisualizer lineWidth 3
par TrainTopology.visualizer.packetFlowVisualizer lineSmooth false
par TrainTopology.visualizer.packetFlowVisualizer lineShift 16
par TrainTopology.visualizer.packetFlowVisualizer lineShiftMode "\"normal\""
par TrainTopology.visualizer.packetFlowVisualizer lineContactSpacing 3
par TrainTopology.visualizer.packetFlowVisualizer lineContactMode "\"rectangular\""
attr enum circular,rectangular
par TrainTopology.visualizer.packetFlowVisualizer labelFormat "\"%L %p pk (%l)\""
par TrainTopology.visualizer.packetFlowVisualizer labelFont "\"<default>, 8px\""
par TrainTopology.visualizer.packetFlowVisualizer labelColor "\"\""
par TrainTopology.visualizer.packetFlowVisualizer fadeOutMode "\"realTime\""
attr enum realTime,animationTime,simulationTime
par TrainTopology.visualizer.packetFlowVisualizer fadeOutTime 0s
attr unit s
par TrainTopology.visualizer.packetFlowVisualizer fadeOutAnimationSpeed 0
par TrainTopology.visualizer.packetFlowVisualizer zIndex 4
par TrainTopology.visualizer.queueVisualizer typename "\"inet.visualizer.canvas.common.QueueCanvasVisualizer\""
par TrainTopology.visualizer.queueVisualizer visualizationTargetModule "\"^.^\""
par TrainTopology.visualizer.queueVisualizer visualizationSubjectModule "\"^.^\""
par TrainTopology.visualizer.queueVisualizer tags "\"\""
par TrainTopology.visualizer.queueVisualizer networkNodeVisualizerModule "\"^.networkNodeVisualizer\""
par TrainTopology.visualizer.queueVisualizer displayQueues false
par TrainTopology.visualizer.queueVisualizer queueFilter "\"**\""
par TrainTopology.visualizer.queueVisualizer color "\"blue\""
par TrainTopology.visualizer.queueVisualizer width 8
par TrainTopology.visualizer.queueVisualizer height 24
par TrainTopology.visualizer.queueVisualizer spacing 2
par TrainTopology.visualizer.queueVisualizer placementHint "\"right\""
par TrainTopology.visualizer.queueVisualizer placementPriority 0
par TrainTopology.visualizer.queueVisualizer zIndex 10
par TrainTopology.visualizer.gateScheduleVisualizer typename "\"inet.visualizer.canvas.common.GateScheduleCanvasVisualizer\""
par TrainTopology.visualizer.gateScheduleVisualizer visualizationTargetModule "\"^.^\""
par TrainTopology.visualizer.gateScheduleVisualizer visualizationSubjectModule "\"^.^\""
par TrainTopology.visualizer.gateScheduleVisualizer tags "\"\""
par TrainTopology.visualizer.gateScheduleVisualizer networkNodeVisualizerModule "\"^.networkNodeVisualizer\""
par TrainTopology.visualizer.gateScheduleVisualizer displayGateSchedules false
par TrainTopology.visualizer.gateScheduleVisualizer labelFormat "\"%i %D\""
par TrainTopology.visualizer.gateScheduleVisualizer gateFilter "\"**\""
par TrainTopology.visualizer.gateScheduleVisualizer width 100
par TrainTopology.visualizer.gateScheduleVisualizer height 8
par TrainTopology.visualizer.gateScheduleVisualizer spacing 2
par TrainTopology.visualizer.gateScheduleVisualizer placementHint "\"right\""
par TrainTopology.visualizer.gateScheduleVisualizer placementPriority 0
par TrainTopology.visualizer.gateScheduleVisualizer displayDuration 0s
attr mutable ""
attr unit s
par TrainTopology.visualizer.gateScheduleVisualizer currentTimePosition 50
par TrainTopology.visualizer.gateScheduleVisualizer zIndex 10
par TrainTopology.visualizer.radioVisualizer typename "\"inet.visualizer.canvas.physicallayer.RadioCanvasVisualizer\""
par TrainTopology.visualizer.radioVisualizer visualizationTargetModule "\"^.^\""
par TrainTopology.visualizer.radioVisualizer visualizationSubjectModule "\"^.^\""
par TrainTopology.visualizer.radioVisualizer tags "\"\""
par TrainTopology.visualizer.radioVisualizer networkNodeVisualizerModule "\"^.networkNodeVisualizer\""
par TrainTopology.visualizer.radioVisualizer displayRadios false
par TrainTopology.visualizer.radioVisualizer displayRadioMode true
par TrainTopology.visualizer.radioVisualizer displayReceptionState true
par TrainTopology.visualizer.radioVisualizer displayTransmissionState true
par TrainTopology.visualizer.radioVisualizer displayAntennaLobes false
par TrainTopology.visualizer.radioVisualizer radioFilter "\"**\""
attr mutable ""
par TrainTopology.visualizer.radioVisualizer radioModeImages "\"block/process_vs block/timer_vs block/wrx_vs block/wtx_vs block/wrxtx_vs block/cogwheel_vs\""
par TrainTopology.visualizer.radioVisualizer receptionStateImages "\"- - misc/receiving misc/receiving\""
par TrainTopology.visualizer.radioVisualizer transmissionStateImages "\"- - misc/transmitting\""
par TrainTopology.visualizer.radioVisualizer width 16
par TrainTopology.visualizer.radioVisualizer height 16
par TrainTopology.visualizer.radioVisualizer placementHint "\"bottomRight\""
par TrainTopology.visualizer.radioVisualizer placementPriority 0
par TrainTopology.visualizer.radioVisualizer antennaLobeNormalize false
par TrainTopology.visualizer.radioVisualizer antennaLobeRelativeLabels false
par TrainTopology.visualizer.radioVisualizer antennaLobePlaneGlobal true
par TrainTopology.visualizer.radioVisualizer antennaLobePlane "\"view\""
attr enum view,xy,xz,yz
par TrainTopology.visualizer.radioVisualizer antennaLobeMode "\"logarithmic\""
attr enum logarithmic,linear
par TrainTopology.visualizer.radioVisualizer antennaLobeLogarithmicBase 10
par TrainTopology.visualizer.radioVisualizer antennaLobeLogarithmicScale 100
par TrainTopology.visualizer.radioVisualizer antennaLobeRadius 100
par TrainTopology.visualizer.radioVisualizer antennaLobeStep 10deg
attr unit deg
par TrainTopology.visualizer.radioVisualizer antennaLobeOpacity 0.25
par TrainTopology.visualizer.radioVisualizer antennaLobeLineSmooth true
par TrainTopology.visualizer.radioVisualizer antennaLobeLineColor "\"black\""
par TrainTopology.visualizer.radioVisualizer antennaLobeLineStyle "\"solid\""
par TrainTopology.visualizer.radioVisualizer antennaLobeLineWidth 1
par TrainTopology.visualizer.radioVisualizer antennaLobeFillColor "\"white\""
par TrainTopology.visualizer.radioVisualizer zIndex 10
par TrainTopology.visualizer.physicalLinkVisualizer typename "\"inet.visualizer.canvas.physicallayer.PhysicalLinkCanvasVisualizer\""
par TrainTopology.visualizer.physicalLinkVisualizer visualizationTargetModule "\"^.^\""
par TrainTopology.visualizer.physicalLinkVisualizer visualizationSubjectModule "\"^.^\""
par TrainTopology.visualizer.physicalLinkVisualizer tags "\"\""
par TrainTopology.visualizer.physicalLinkVisualizer displayLinks false
par TrainTopology.visualizer.physicalLinkVisualizer activityLevel "\"service\""
attr enum service,peer,protocol
par TrainTopology.visualizer.physicalLinkVisualizer nodeFilter "\"*\""
attr mutable ""
par TrainTopology.visualizer.physicalLinkVisualizer interfaceFilter "\"*\""
attr mutable ""
par TrainTopology.visualizer.physicalLinkVisualizer packetFilter "(omnetpp::cValueHolder)holder: \"*\""
attr mutable ""
par TrainTopology.visualizer.physicalLinkVisualizer lineColor "\"olive\""
par TrainTopology.visualizer.physicalLinkVisualizer lineStyle "\"dotted\""
par TrainTopology.visualizer.physicalLinkVisualizer lineWidth 3
par TrainTopology.visualizer.physicalLinkVisualizer lineShift 16
par TrainTopology.visualizer.physicalLinkVisualizer lineShiftMode "\"normal\""
par TrainTopology.visualizer.physicalLinkVisualizer lineContactSpacing 3
par TrainTopology.visualizer.physicalLinkVisualizer lineContactMode "\"rectangular\""
attr enum circular,rectangular
par TrainTopology.visualizer.physicalLinkVisualizer labelFormat "\"%n\""
par TrainTopology.visualizer.physicalLinkVisualizer labelFont "\"<default>, 8px\""
par TrainTopology.visualizer.physicalLinkVisualizer labelColor "\"olive\""
par TrainTopology.visualizer.physicalLinkVisualizer fadeOutMode "\"realTime\""
attr enum realTime,animationTime,simulationTime
par TrainTopology.visualizer.physicalLinkVisualizer fadeOutTime 1s
attr unit s
par TrainTopology.visualizer.physicalLinkVisualizer fadeOutAnimationSpeed 0
par TrainTopology.visualizer.physicalLinkVisualizer holdAnimationTime 0s
attr unit s
par TrainTopology.visualizer.physicalLinkVisualizer zIndex 1
par TrainTopology.visualizer.interfaceTableVisualizer typename "\"inet.visualizer.canvas.linklayer.InterfaceTableCanvasVisualizer\""
par TrainTopology.visualizer.interfaceTableVisualizer visualizationTargetModule "\"^.^\""
par TrainTopology.visualizer.interfaceTableVisualizer visualizationSubjectModule "\"^.^\""
par TrainTopology.visualizer.interfaceTableVisualizer tags "\"\""
par TrainTopology.visualizer.interfaceTableVisualizer networkNodeVisualizerModule "\"^.networkNodeVisualizer\""
par TrainTopology.visualizer.interfaceTableVisualizer displayInterfaceTables false
par TrainTopology.visualizer.interfaceTableVisualizer displayWiredInterfacesAtConnections true
par TrainTopology.visualizer.interfaceTableVisualizer displayBackground false
par TrainTopology.visualizer.interfaceTableVisualizer nodeFilter "\"*\""
attr mutable ""
par TrainTopology.visualizer.interfaceTableVisualizer interfaceFilter "\"not(lo*)\""
attr mutable ""
par TrainTopology.visualizer.interfaceTableVisualizer format "\"%N %\\\\%a%/%l\""
attr mutable ""
par TrainTopology.visualizer.interfaceTableVisualizer placementHint "\"top\""
par TrainTopology.visualizer.interfaceTableVisualizer placementPriority 0
par TrainTopology.visualizer.interfaceTableVisualizer font "\"<default>\""
par TrainTopology.visualizer.interfaceTableVisualizer textColor "\"#005030\""
par TrainTopology.visualizer.interfaceTableVisualizer backgroundColor "\"white\""
par TrainTopology.visualizer.interfaceTableVisualizer opacity 1
par TrainTopology.visualizer.interfaceTableVisualizer zIndex 10
par TrainTopology.visualizer.dataLinkVisualizer typename "\"inet.visualizer.canvas.linklayer.DataLinkCanvasVisualizer\""
par TrainTopology.visualizer.dataLinkVisualizer visualizationTargetModule "\"^.^\""
par TrainTopology.visualizer.dataLinkVisualizer visualizationSubjectModule "\"^.^\""
par TrainTopology.visualizer.dataLinkVisualizer tags "\"\""
par TrainTopology.visualizer.dataLinkVisualizer displayLinks false
par TrainTopology.visualizer.dataLinkVisualizer activityLevel "\"service\""
attr enum service,peer,protocol
par TrainTopology.visualizer.dataLinkVisualizer nodeFilter "\"*\""
attr mutable ""
par TrainTopology.visualizer.dataLinkVisualizer interfaceFilter "\"*\""
attr mutable ""
par TrainTopology.visualizer.dataLinkVisualizer packetFilter "(omnetpp::cValueHolder)holder: \"*\""
attr mutable ""
par TrainTopology.visualizer.dataLinkVisualizer lineColor "\"darkcyan\""
par TrainTopology.visualizer.dataLinkVisualizer lineStyle "\"solid\""
par TrainTopology.visualizer.dataLinkVisualizer lineWidth 3
par TrainTopology.visualizer.dataLinkVisualizer lineShift 16
par TrainTopology.visualizer.dataLinkVisualizer lineShiftMode "\"normal\""
par TrainTopology.visualizer.dataLinkVisualizer lineContactSpacing 3
par TrainTopology.visualizer.dataLinkVisualizer lineContactMode "\"rectangular\""
attr enum circular,rectangular
par TrainTopology.visualizer.dataLinkVisualizer labelFormat "\"%n\""
par TrainTopology.visualizer.dataLinkVisualizer labelFont "\"<default>, 8px\""
par TrainTopology.visualizer.dataLinkVisualizer labelColor "\"darkcyan\""
par TrainTopology.visualizer.dataLinkVisualizer fadeOutMode "\"realTime\""
attr enum realTime,animationTime,simulationTime
par TrainTopology.visualizer.dataLinkVisualizer fadeOutTime 1s
attr unit s
par TrainTopology.visualizer.dataLinkVisualizer fadeOutAnimationSpeed 0
par TrainTopology.visualizer.dataLinkVisualizer holdAnimationTime 0s
attr unit s
par TrainTopology.visualizer.dataLinkVisualizer zIndex 2
par TrainTopology.visualizer.linkBreakVisualizer typename "\"inet.visualizer.canvas.linklayer.LinkBreakCanvasVisualizer\""
par TrainTopology.visualizer.linkBreakVisualizer visualizationTargetModule "\"^.^\""
par TrainTopology.visualizer.linkBreakVisualizer visualizationSubjectModule "\"^.^\""
par TrainTopology.visualizer.linkBreakVisualizer tags "\"\""
par TrainTopology.visualizer.linkBreakVisualizer displayLinkBreaks false
par TrainTopology.visualizer.linkBreakVisualizer nodeFilter "\"*\""
attr mutable ""
par TrainTopology.visualizer.linkBreakVisualizer interfaceFilter "\"*\""
attr mutable ""
par TrainTopology.visualizer.linkBreakVisualizer packetFilter "(omnetpp::cValueHolder)holder: \"*\""
attr mutable ""
par TrainTopology.visualizer.linkBreakVisualizer icon "\"status/stop\""
par TrainTopology.visualizer.linkBreakVisualizer iconTintAmount 0
par TrainTopology.visualizer.linkBreakVisualizer iconTintColor "\"\""
par TrainTopology.visualizer.linkBreakVisualizer fadeOutMode "\"realTime\""
attr enum realTime,animationTime,simulationTime
par TrainTopology.visualizer.linkBreakVisualizer fadeOutTime 1s
attr unit s
par TrainTopology.visualizer.linkBreakVisualizer fadeOutAnimationSpeed 0
par TrainTopology.visualizer.linkBreakVisualizer zIndex 2
par TrainTopology.visualizer.ieee80211Visualizer typename "\"inet.visualizer.canvas.linklayer.Ieee80211CanvasVisualizer\""
par TrainTopology.visualizer.ieee80211Visualizer visualizationTargetModule "\"^.^\""
par TrainTopology.visualizer.ieee80211Visualizer visualizationSubjectModule "\"^.^\""
par TrainTopology.visualizer.ieee80211Visualizer tags "\"\""
par TrainTopology.visualizer.ieee80211Visualizer networkNodeVisualizerModule "\"^.networkNodeVisualizer\""
par TrainTopology.visualizer.ieee80211Visualizer displayAssociations false
par TrainTopology.visualizer.ieee80211Visualizer nodeFilter "\"*\""
attr mutable ""
par TrainTopology.visualizer.ieee80211Visualizer interfaceFilter "\"*\""
attr mutable ""
par TrainTopology.visualizer.ieee80211Visualizer minPower -85dBm
attr unit dBm
par TrainTopology.visualizer.ieee80211Visualizer maxPower -50dBm
attr unit dBm
par TrainTopology.visualizer.ieee80211Visualizer icons "\"misc/signal_power_0 misc/signal_power_1 misc/signal_power_2 misc/signal_power_3\""
par TrainTopology.visualizer.ieee80211Visualizer iconColor "\"dark\""
attr enum light,dark
par TrainTopology.visualizer.ieee80211Visualizer labelFont "\"<default>\""
par TrainTopology.visualizer.ieee80211Visualizer labelColor "\"black\""
par TrainTopology.visualizer.ieee80211Visualizer placementHint "\"top\""
par TrainTopology.visualizer.ieee80211Visualizer placementPriority 0
par TrainTopology.visualizer.ieee80211Visualizer zIndex 2
par TrainTopology.visualizer.networkRouteVisualizer typename "\"inet.visualizer.canvas.networklayer.NetworkRouteCanvasVisualizer\""
par TrainTopology.visualizer.networkRouteVisualizer visualizationTargetModule "\"^.^\""
par TrainTopology.visualizer.networkRouteVisualizer visualizationSubjectModule "\"^.^\""
par TrainTopology.visualizer.networkRouteVisualizer tags "\"\""
par TrainTopology.visualizer.networkRouteVisualizer displayRoutes false
par TrainTopology.visualizer.networkRouteVisualizer startPathSignal "\"packetReceivedFromUpper\""
par TrainTopology.visualizer.networkRouteVisualizer extendPathSignal "\"packetReceivedFromLower\""
par TrainTopology.visualizer.networkRouteVisualizer endPathSignal "\"packetSentToUpper\""
par TrainTopology.visualizer.networkRouteVisualizer nodeFilter "\"*\""
attr mutable ""
par TrainTopology.visualizer.networkRouteVisualizer packetFilter "(omnetpp::cValueHolder)holder: \"*\""
attr mutable ""
par TrainTopology.visualizer.networkRouteVisualizer lineColor "\"dark\""
attr enum light,dark
par TrainTopology.visualizer.networkRouteVisualizer lineStyle "\"solid\""
par TrainTopology.visualizer.networkRouteVisualizer lineWidth 3
par TrainTopology.visualizer.networkRouteVisualizer lineSmooth false
par TrainTopology.visualizer.networkRouteVisualizer lineShift 16
par TrainTopology.visualizer.networkRouteVisualizer lineShiftMode "\"normal\""
par TrainTopology.visualizer.networkRouteVisualizer lineContactSpacing 3
par TrainTopology.visualizer.networkRouteVisualizer lineContactMode "\"rectangular\""
attr enum circular,rectangular
par TrainTopology.visualizer.networkRouteVisualizer labelFormat "\"%n\""
par TrainTopology.visualizer.networkRouteVisualizer labelFont "\"<default>, 8px\""
par TrainTopology.visualizer.networkRouteVisualizer labelColor "\"\""
par TrainTopology.visualizer.networkRouteVisualizer fadeOutMode "\"realTime\""
attr enum realTime,animationTime,simulationTime
par TrainTopology.visualizer.networkRouteVisualizer fadeOutTime 1s
attr unit s
par TrainTopology.visualizer.networkRouteVisualizer fadeOutAnimationSpeed 0
par TrainTopology.visualizer.networkRouteVisualizer zIndex 3
par TrainTopology.visualizer.routingTableVisualizer typename "\"inet.visualizer.canvas.networklayer.RoutingTableCanvasVisualizer\""
par TrainTopology.visualizer.routingTableVisualizer visualizationTargetModule "\"^.^\""
par TrainTopology.visualizer.routingTableVisualizer visualizationSubjectModule "\"^.^\""
par TrainTopology.visualizer.routingTableVisualizer tags "\"\""
par TrainTopology.visualizer.routingTableVisualizer displayRoutingTables false
par TrainTopology.visualizer.routingTableVisualizer displayRoutesIndividually true
par TrainTopology.visualizer.routingTableVisualizer displayLabels true
par TrainTopology.visualizer.routingTableVisualizer destinationFilter "\"*\""
attr mutable ""
par TrainTopology.visualizer.routingTableVisualizer nodeFilter "\"*\""
attr mutable ""
par TrainTopology.visualizer.routingTableVisualizer lineColor "\"black\""
par TrainTopology.visualizer.routingTableVisualizer lineStyle "\"solid\""
par TrainTopology.visualizer.routingTableVisualizer lineWidth 2
par TrainTopology.visualizer.routingTableVisualizer lineShift 16
par TrainTopology.visualizer.routingTableVisualizer lineShiftMode "\"normal\""
par TrainTopology.visualizer.routingTableVisualizer lineContactSpacing 3
par TrainTopology.visualizer.routingTableVisualizer lineContactMode "\"rectangular\""
attr enum circular,rectangular
par TrainTopology.visualizer.routingTableVisualizer labelFormat "\"%d/%m -> %g (%n)\""
attr mutable ""
par TrainTopology.visualizer.routingTableVisualizer labelFont "\"<default>, 8px\""
par TrainTopology.visualizer.routingTableVisualizer labelColor "\"black\""
par TrainTopology.visualizer.routingTableVisualizer zIndex 0
par TrainTopology.visualizer.transportRouteVisualizer typename "\"inet.visualizer.canvas.transportlayer.TransportRouteCanvasVisualizer\""
par TrainTopology.visualizer.transportRouteVisualizer visualizationTargetModule "\"^.^\""
par TrainTopology.visualizer.transportRouteVisualizer visualizationSubjectModule "\"^.^\""
par TrainTopology.visualizer.transportRouteVisualizer tags "\"\""
par TrainTopology.visualizer.transportRouteVisualizer displayRoutes false
par TrainTopology.visualizer.transportRouteVisualizer startPathSignal "\"packetReceivedFromUpper\""
par TrainTopology.visualizer.transportRouteVisualizer extendPathSignal "\"packetReceivedFromLower\""
par TrainTopology.visualizer.transportRouteVisualizer endPathSignal "\"packetSentToUpper\""
par TrainTopology.visualizer.transportRouteVisualizer nodeFilter "\"*\""
attr mutable ""
par TrainTopology.visualizer.transportRouteVisualizer packetFilter "(omnetpp::cValueHolder)holder: \"*\""
attr mutable ""
par TrainTopology.visualizer.transportRouteVisualizer lineColor "\"dark\""
attr enum light,dark
par TrainTopology.visualizer.transportRouteVisualizer lineStyle "\"solid\""
par TrainTopology.visualizer.transportRouteVisualizer lineWidth 3
par TrainTopology.visualizer.transportRouteVisualizer lineSmooth false
par TrainTopology.visualizer.transportRouteVisualizer lineShift 16
par TrainTopology.visualizer.transportRouteVisualizer lineShiftMode "\"normal\""
par TrainTopology.visualizer.transportRouteVisualizer lineContactSpacing 3
par TrainTopology.visualizer.transportRouteVisualizer lineContactMode "\"rectangular\""
attr enum circular,rectangular
par TrainTopology.visualizer.transportRouteVisualizer labelFormat "\"%n\""
par TrainTopology.visualizer.transportRouteVisualizer labelFont "\"<default>, 8px\""
par TrainTopology.visualizer.transportRouteVisualizer labelColor "\"\""
par TrainTopology.visualizer.transportRouteVisualizer fadeOutMode "\"realTime\""
attr enum realTime,animationTime,simulationTime
par TrainTopology.visualizer.transportRouteVisualizer fadeOutTime 1s
attr unit s
par TrainTopology.visualizer.transportRouteVisualizer fadeOutAnimationSpeed 0
par TrainTopology.visualizer.transportRouteVisualizer zIndex 4
par TrainTopology.visualizer.transportConnectionVisualizer typename "\"inet.visualizer.canvas.transportlayer.TransportConnectionCanvasVisualizer\""
par TrainTopology.visualizer.transportConnectionVisualizer visualizationTargetModule "\"^.^\""
par TrainTopology.visualizer.transportConnectionVisualizer visualizationSubjectModule "\"^.^\""
par TrainTopology.visualizer.transportConnectionVisualizer tags "\"\""
par TrainTopology.visualizer.transportConnectionVisualizer networkNodeVisualizerModule "\"^.networkNodeVisualizer\""
par TrainTopology.visualizer.transportConnectionVisualizer displayTransportConnections false
par TrainTopology.visualizer.transportConnectionVisualizer sourceNodeFilter "\"*\""
attr mutable ""
par TrainTopology.visualizer.transportConnectionVisualizer sourcePortFilter "\"*\""
attr mutable ""
par TrainTopology.visualizer.transportConnectionVisualizer destinationNodeFilter "\"*\""
attr mutable ""
par TrainTopology.visualizer.transportConnectionVisualizer destinationPortFilter "\"*\""
attr mutable ""
par TrainTopology.visualizer.transportConnectionVisualizer icon "\"misc/marker_s\""
par TrainTopology.visualizer.transportConnectionVisualizer iconColor "\"dark\""
attr enum light,dark
par TrainTopology.visualizer.transportConnectionVisualizer labelFont "\"<default>\""
par TrainTopology.visualizer.transportConnectionVisualizer labelColor "\"black\""
par TrainTopology.visualizer.transportConnectionVisualizer placementHint "\"top\""
par TrainTopology.visualizer.transportConnectionVisualizer placementPriority 0
par TrainTopology.visualizer.transportConnectionVisualizer zIndex 4
par TrainTopology.visualizer.failureProtectionConfigurationVisualizer typename "\"inet.visualizer.canvas.configurator.FailureProtectionConfigurationCanvasVisualizer\""
par TrainTopology.visualizer.failureProtectionConfigurationVisualizer visualizationTargetModule "\"^.^\""
par TrainTopology.visualizer.failureProtectionConfigurationVisualizer visualizationSubjectModule "\"^.^\""
par TrainTopology.visualizer.failureProtectionConfigurationVisualizer tags "\"\""
par TrainTopology.visualizer.failureProtectionConfigurationVisualizer displayTrees false
par TrainTopology.visualizer.failureProtectionConfigurationVisualizer lineColor "\"dark\""
attr enum light,dark
par TrainTopology.visualizer.failureProtectionConfigurationVisualizer lineStyle "\"solid\""
par TrainTopology.visualizer.failureProtectionConfigurationVisualizer lineWidth 3
par TrainTopology.visualizer.failureProtectionConfigurationVisualizer lineSmooth false
par TrainTopology.visualizer.failureProtectionConfigurationVisualizer lineShift 16
par TrainTopology.visualizer.failureProtectionConfigurationVisualizer lineShiftMode "\"normal\""
par TrainTopology.visualizer.failureProtectionConfigurationVisualizer lineContactSpacing 3
par TrainTopology.visualizer.failureProtectionConfigurationVisualizer lineContactMode "\"rectangular\""
attr enum circular,rectangular
par TrainTopology.visualizer.failureProtectionConfigurationVisualizer failureProtectionConfiguratorModule "\"failureProtectionConfigurator\""
par TrainTopology.visualizer.failureProtectionConfigurationVisualizer streamFilter "\"*\""
par TrainTopology.visualizer.failureProtectionConfigurationVisualizer zIndex 3
par TrainTopology.visualizer.streamRedundancyConfigurationVisualizer typename "\"inet.visualizer.canvas.configurator.StreamRedundancyConfigurationCanvasVisualizer\""
par TrainTopology.visualizer.streamRedundancyConfigurationVisualizer visualizationTargetModule "\"^.^\""
par TrainTopology.visualizer.streamRedundancyConfigurationVisualizer visualizationSubjectModule "\"^.^\""
par TrainTopology.visualizer.streamRedundancyConfigurationVisualizer tags "\"\""
par TrainTopology.visualizer.streamRedundancyConfigurationVisualizer displayTrees false
par TrainTopology.visualizer.streamRedundancyConfigurationVisualizer lineColor "\"dark\""
attr enum light,dark
par TrainTopology.visualizer.streamRedundancyConfigurationVisualizer lineStyle "\"solid\""
par TrainTopology.visualizer.streamRedundancyConfigurationVisualizer lineWidth 3
par TrainTopology.visualizer.streamRedundancyConfigurationVisualizer lineSmooth false
par TrainTopology.visualizer.streamRedundancyConfigurationVisualizer lineShift 16
par TrainTopology.visualizer.streamRedundancyConfigurationVisualizer lineShiftMode "\"normal\""
par TrainTopology.visualizer.streamRedundancyConfigurationVisualizer lineContactSpacing 3
par TrainTopology.visualizer.streamRedundancyConfigurationVisualizer lineContactMode "\"rectangular\""
attr enum circular,rectangular
par TrainTopology.visualizer.streamRedundancyConfigurationVisualizer streamRedundancyConfiguratorModule "\"streamRedundancyConfigurator\""
par TrainTopology.visualizer.streamRedundancyConfigurationVisualizer streamFilter "\"*\""
par TrainTopology.visualizer.streamRedundancyConfigurationVisualizer zIndex 3
par TrainTopology.visualizer typename "\"inet.visualizer.canvas.integrated.IntegratedCanvasVisualizer\""
par TrainTopology.configurator typename "\"inet.networklayer.configurator.ipv4.Ipv4NetworkConfigurator\""
par TrainTopology.configurator minLinkWeight 0.001
par TrainTopology.configurator configureIsolatedNetworksSeparatly false
par TrainTopology.configurator config "<config>...</config> at content:1"
par TrainTopology.configurator assignAddresses true
par TrainTopology.configurator assignUniqueAddresses true
par TrainTopology.configurator assignDisjunctSubnetAddresses true
par TrainTopology.configurator addStaticRoutes true
par TrainTopology.configurator addDefaultRoutes true
par TrainTopology.configurator addSubnetRoutes true
par TrainTopology.configurator addDirectRoutes true
par TrainTopology.configurator optimizeRoutes true
par TrainTopology.configurator dumpTopology false
par TrainTopology.configurator dumpLinks false
par TrainTopology.configurator dumpAddresses false
par TrainTopology.configurator dumpRoutes false
par TrainTopology.configurator dumpConfig "\"\""
par TrainTopology.macForwardingTableConfigurator typename "\"inet.linklayer.configurator.MacForwardingTableConfigurator\""
par TrainTopology.carrierAggregation.componentCarrier[0] typename "\"simu5g.common.carrierAggregation.ComponentCarrier\""
par TrainTopology.carrierAggregation.componentCarrier[0] carrierFrequency 2GHz
attr unit GHz
par TrainTopology.carrierAggregation.componentCarrier[0] numBands 1
par TrainTopology.carrierAggregation.componentCarrier[0] numerologyIndex 0
par TrainTopology.carrierAggregation.componentCarrier[0] useTdd false
par TrainTopology.carrierAggregation.componentCarrier[0] tddNumSymbolsDl 7
par TrainTopology.carrierAggregation.componentCarrier[0] tddNumSymbolsUl 7
par TrainTopology.carrierAggregation typename "\"simu5g.common.carrierAggregation.CarrierAggregation\""
par TrainTopology.carrierAggregation numComponentCarriers 1
par TrainTopology.channelControl typename "\"simu5g.world.radio.LteChannelControl\""
par TrainTopology.channelControl coreDebug false
par TrainTopology.channelControl pMax 20mW
attr unit mW
par TrainTopology.channelControl sat -110dBm
attr unit dBm
par TrainTopology.channelControl alpha 2
par TrainTopology.channelControl carrierFrequency 2.4e+09Hz
attr unit Hz
par TrainTopology.channelControl numChannels 1
par TrainTopology.channelControl propagationModel "\"FreeSpaceModel\""
attr enum FreeSpaceModel,TwoRayGroundModel,RiceModel,RayleighModel,NakagamiModel,LogNormalShadowingModel
par TrainTopology.routingRecorder typename "\"inet.networklayer.ipv4.RoutingTableRecorder\""
par TrainTopology.routingRecorder enabled true
par TrainTopology.binder typename "\"simu5g.common.binder.Binder\""
par TrainTopology.binder blerShift 0
par TrainTopology.binder maxDataRatePerRb 1.16Mbps
attr unit Mbps
par TrainTopology.binder printTrafficGeneratorConfig false
par TrainTopology.server.ethg$i[0].channel typename "\"ned.IdealChannel\""
par TrainTopology.server.eth[0].phys$o.channel typename "\"ned.IdealChannel\""
par TrainTopology.server.interfaceTable typename "\"inet.networklayer.common.InterfaceTable\""
par TrainTopology.server.interfaceTable displayAddresses false
par TrainTopology.server.cb typename "\"inet.common.MessageDispatcher\""
par TrainTopology.server.cb displayStringTextFormat "\"processed %p pk (%l)\""
par TrainTopology.server.cb forwardServiceRegistration true
par TrainTopology.server.cb forwardProtocolRegistration true
par TrainTopology.server.bridging.directionReverser.upperLayerIn.channel typename "\"ned.IdealChannel\""
par TrainTopology.server.bridging.directionReverser.join.out.channel typename "\"ned.IdealChannel\""
par TrainTopology.server.bridging.directionReverser.lowerLayerIn.channel typename "\"ned.IdealChannel\""
par TrainTopology.server.bridging.directionReverser.fork.out[0].channel typename "\"ned.IdealChannel\""
par TrainTopology.server.bridging.directionReverser.fork typename "\"inet.common.MessageDispatcher\""
par TrainTopology.server.bridging.directionReverser.fork displayStringTextFormat "\"processed %p pk (%l)\""
par TrainTopology.server.bridging.directionReverser.fork forwardServiceRegistration false
par TrainTopology.server.bridging.directionReverser.fork forwardProtocolRegistration true
par TrainTopology.server.bridging.directionReverser.reverser typename "\"inet.linklayer.ethernet.common.PacketDirectionReverser\""
par TrainTopology.server.bridging.directionReverser.reverser displayStringTextFormat "\"processed %p pk (%l)\""
par TrainTopology.server.bridging.directionReverser.reverser forwardVlan true
par TrainTopology.server.bridging.directionReverser.reverser forwardPcp true
par TrainTopology.server.bridging.directionReverser.reverser excludeEncapsulationProtocols []
scalar TrainTopology.server.bridging.directionReverser.reverser outgoingPackets:count 0
attr recordingmode count
attr source "merge(packetPushedOut, packetPulledOut)"
attr title "outgoing packets, count"
attr unit pk
scalar TrainTopology.server.bridging.directionReverser.reverser outgoingPacketLengths:sum 0
attr interpolationmode none
attr recordingmode sum
attr source "packetLength(merge(packetPushedOut, packetPulledOut))"
attr title "outgoing packet lengths, sum"
attr unit b
statistic TrainTopology.server.bridging.directionReverser.reverser outgoingPacketLengths:histogram
field count 0
field mean -nan
field stddev nan
field min nan
field max nan
field sum 0
field sqrsum 0
attr interpolationmode none
attr recordingmode histogram
attr source "packetLength(merge(packetPushedOut, packetPulledOut))"
attr title "outgoing packet lengths"
attr unit b
bin	-inf	0
bin	0	0
bin	1	0
scalar TrainTopology.server.bridging.directionReverser.reverser flowOutgoingPacketLengths:sum 0
attr interpolationmode none
attr recordingmode sum
attr source "packetLength(demuxFlow(merge(packetPushedOut, packetPulledOut)))"
attr title "flow specific outgoing packet lengths, sum"
attr unit b
statistic TrainTopology.server.bridging.directionReverser.reverser flowOutgoingPacketLengths:histogram
field count 0
field mean -nan
field stddev nan
field min nan
field max nan
field sum 0
field sqrsum 0
attr interpolationmode none
attr recordingmode histogram
attr source "packetLength(demuxFlow(merge(packetPushedOut, packetPulledOut)))"
attr title "flow specific outgoing packet lengths"
attr unit b
bin	-inf	0
bin	0	0
bin	1	0
scalar TrainTopology.server.bridging.directionReverser.reverser incomingPackets:count 0
attr recordingmode count
attr source "merge(packetPushedIn, packetPulledIn)"
attr title "incoming packets, count"
attr unit pk
scalar TrainTopology.server.bridging.directionReverser.reverser incomingPacketLengths:sum 0
attr interpolationmode none
attr recordingmode sum
attr source "packetLength(merge(packetPushedIn, packetPulledIn))"
attr title "incoming packet lengths, sum"
attr unit b
statistic TrainTopology.server.bridging.directionReverser.reverser incomingPacketLengths:histogram
field count 0
field mean -nan
field stddev nan
field min nan
field max nan
field sum 0
field sqrsum 0
attr interpolationmode none
attr recordingmode histogram
attr source "packetLength(merge(packetPushedIn, packetPulledIn))"
attr title "incoming packet lengths"
attr unit b
bin	-inf	0
bin	0	0
bin	1	0
scalar TrainTopology.server.bridging.directionReverser.reverser flowIncomingPacketLengths:sum 0
attr interpolationmode none
attr recordingmode sum
attr source "packetLength(demuxFlow(merge(packetPushedIn, packetPulledIn)))"
attr title "flow specific incoming packet lengths, sum"
attr unit b
statistic TrainTopology.server.bridging.directionReverser.reverser flowIncomingPacketLengths:histogram
field count 0
field mean -nan
field stddev nan
field min nan
field max nan
field sum 0
field sqrsum 0
attr interpolationmode none
attr recordingmode histogram
attr source "packetLength(demuxFlow(merge(packetPushedIn, packetPulledIn)))"
attr title "flow specific incoming packet lengths"
attr unit b
bin	-inf	0
bin	0	0
bin	1	0
par TrainTopology.server.bridging.directionReverser.join typename "\"inet.queueing.common.PacketMultiplexer\""
par TrainTopology.server.bridging.directionReverser.join displayStringTextFormat "\"passed %p pk (%l)\""
par TrainTopology.server.bridging.directionReverser.join forwardServiceRegistration true
par TrainTopology.server.bridging.directionReverser.join forwardProtocolRegistration false
scalar TrainTopology.server.bridging.directionReverser.join packets:count 0
attr recordingmode count
attr source "merge(packetPushed, packetPulled)"
attr title "packets, count"
attr unit pk
scalar TrainTopology.server.bridging.directionReverser.join packetLengths:sum 0
attr interpolationmode none
attr recordingmode sum
attr source "packetLength(merge(packetPushed, packetPulled))"
attr title "packet lengths, sum"
attr unit b
statistic TrainTopology.server.bridging.directionReverser.join packetLengths:histogram
field count 0
field mean -nan
field stddev nan
field min nan
field max nan
field sum 0
field sqrsum 0
attr interpolationmode none
attr recordingmode histogram
attr source "packetLength(merge(packetPushed, packetPulled))"
attr title "packet lengths"
attr unit b
bin	-inf	0
bin	0	0
bin	1	0
par TrainTopology.server.bridging.directionReverser typename "\"inet.linklayer.ethernet.common.DirectionReverserLayer\""
par TrainTopology.server.bridging.streamIdentifier.upperLayerIn.channel typename "\"ned.IdealChannel\""
par TrainTopology.server.bridging.streamIdentifier.identifier.out.channel typename "\"ned.IdealChannel\""
[...]
attr unit meters
scalar TrainTopology.BCUUe[3].cellularNic.nrChannelModel[0] measuredSinrUl:mean -2.8989646786139
attr recordingmode mean
attr source measuredSinrUl
attr title "SINR measured at feedback computation, UL, mean"
attr unit dB
scalar TrainTopology.BCUUe[3].cellularNic.nrChannelModel[0] measuredSinrDl:mean 6.2018981145776
attr recordingmode mean
attr source measuredSinrDl
attr title "SINR measured at feedback computation, DL, mean"
attr unit dB
scalar TrainTopology.BCUUe[3].cellularNic.nrChannelModel[0] rcvdSinrUl:mean -2.8989646786139
attr recordingmode mean
attr source rcvdSinrUl
attr title "SINR measured at packet reception, UL, mean"
attr unit dB
scalar TrainTopology.BCUUe[3].cellularNic.nrChannelModel[0] rcvdSinrDl:mean -nan
attr recordingmode mean
attr source rcvdSinrDl
attr title "SINR measured at packet reception, DL, mean"
attr unit dB
par TrainTopology.BCUUe[3].cellularNic.nrDlFbGen typename "\"simu5g.stack.phy.feedback.LteDlFeedbackGenerator\""
par TrainTopology.BCUUe[3].cellularNic.nrDlFbGen feedbackType "\"ALLBANDS\""
par TrainTopology.BCUUe[3].cellularNic.nrDlFbGen rbAllocationType "\"localized\""
par TrainTopology.BCUUe[3].cellularNic.nrDlFbGen fbPeriod 6
par TrainTopology.BCUUe[3].cellularNic.nrDlFbGen fbDelay 1
par TrainTopology.BCUUe[3].cellularNic.nrDlFbGen usePeriodic true
par TrainTopology.BCUUe[3].cellularNic.nrDlFbGen initialTxMode "\"SINGLE_ANTENNA_PORT0\""
par TrainTopology.BCUUe[3].cellularNic.nrDlFbGen feedbackGeneratorType "\"IDEAL\""
par TrainTopology.BCUUe[3].cellularNic typename "\"simu5g.stack.NRNicUe\""
par TrainTopology.BCUUe[3].cellularNic displayStringTextFormat "\"%a (%i)\\n%m\""
par TrainTopology.BCUUe[3].cellularNic recordPcap false
par TrainTopology.BCUUe[3].cellularNic numPcapRecorders 0
par TrainTopology.BCUUe[3].cellularNic isWireless true
par TrainTopology.BCUUe[3].cellularNic interfaceTableModule "\"TrainTopology.BCUUe[3].interfaceTable\""
par TrainTopology.BCUUe[3].cellularNic routingTableModule "\"^.ipv4.routingTable\""
par TrainTopology.BCUUe[3].cellularNic LtePdcpRrcType "\"NRPdcpRrcUe\""
par TrainTopology.BCUUe[3].cellularNic LteMacType "\"LteMacUeD2D\""
par TrainTopology.BCUUe[3].cellularNic PacketFlowManagerType "\"PacketFlowManagerUe\""
par TrainTopology.BCUUe[3].cellularNic hasRNISupport false
par TrainTopology.BCUUe[3].cellularNic LtePhyType "\"NRPhyUe\""
par TrainTopology.BCUUe[3].cellularNic nodeType "\"UE\""
par TrainTopology.BCUUe[3].cellularNic processingDelayIn 0s
attr unit s
par TrainTopology.BCUUe[3].cellularNic processingDelayOut 0s
attr unit s
par TrainTopology.BCUUe[3].cellularNic LteChannelModelType "\"LteRealisticChannelModel\""
par TrainTopology.BCUUe[3].cellularNic d2dCapable true
par TrainTopology.BCUUe[3].cellularNic dualConnectivityEnabled false
par TrainTopology.BCUUe[3].cellularNic numCarriers 1
par TrainTopology.BCUUe[3].cellularNic address "\"0A-AA-00-00-00-1A\""
attr mutable ""
par TrainTopology.BCUUe[3].cellularNic d2dInitialMode false
par TrainTopology.BCUUe[3].cellularNic NRMacType "\"NRMacUe\""
par TrainTopology.BCUUe[3].cellularNic NRPhyType "\"NRPhyUe\""
par TrainTopology.BCUUe[3].cellularNic NRChannelModelType "\"NRChannelModel_3GPP38_901\""
par TrainTopology.BCUUe[3].cellularNic NRPacketFlowManagerType "\"NRPacketFlowManagerUe\""
par TrainTopology.BCUUe[3].cellularNic numNRCarriers 1
scalar TrainTopology.BCUUe[3].cellularNic packetDropInterfaceDown:count 0
attr interpolationmode none
attr recordingmode count
attr source packetDropReasonIsInterfaceDown(packetDropped)
attr title "packet drops: interface down, count"
scalar TrainTopology.BCUUe[3].cellularNic packetDropInterfaceDown:sum(packetBytes) 0
attr interpolationmode none
attr recordingmode sum(packetBytes)
attr source packetDropReasonIsInterfaceDown(packetDropped)
attr title "packet drops: interface down, sum(packetBytes)"
scalar TrainTopology.BCUUe[3].cellularNic packetDropNoCarrier:count 0
attr interpolationmode none
attr recordingmode count
attr source packetDropReasonIsNoCarrier(packetDropped)
attr title "packet drops: no carrier, count"
scalar TrainTopology.BCUUe[3].cellularNic packetDropNoCarrier:sum(packetBytes) 0
attr interpolationmode none
attr recordingmode sum(packetBytes)
attr source packetDropReasonIsNoCarrier(packetDropped)
attr title "packet drops: no carrier, sum(packetBytes)"
par TrainTopology.BCUUe[3].encap typename "\"inet.linklayer.ethernet.basic.EthernetEncapsulation\""
par TrainTopology.BCUUe[3].encap registerProtocol true
par TrainTopology.BCUUe[3].encap interfaceTableModule "\"TrainTopology.BCUUe[3].interfaceTable\""
par TrainTopology.BCUUe[3].encap fcsMode "\"declared\""
attr enum declared,computed
par TrainTopology.BCUUe[3].encap stopOperationExtraTime -1s
attr unit s
par TrainTopology.BCUUe[3].encap stopOperationTimeout 2s
attr unit s
scalar TrainTopology.BCUUe[3].encap pauseSent:count 0
attr recordingmode count
attr title "pause sent, count"
scalar TrainTopology.BCUUe[3].encap pauseSent:sum 0
attr recordingmode sum
attr title "pause sent, sum"
scalar TrainTopology.BCUUe[3].encap decapPk:count 0
attr interpolationmode none
attr recordingmode count
attr source decapPk
attr title "packets decapsulated, count"
scalar TrainTopology.BCUUe[3].encap decapPk:sum(packetBytes) 0
attr interpolationmode none
attr recordingmode sum(packetBytes)
attr source decapPk
attr title "packets decapsulated, sum(packetBytes)"
scalar TrainTopology.BCUUe[3].encap encapPk:count 0
attr interpolationmode none
attr recordingmode count
attr source encapPk
attr title "packets encapsulated, count"
scalar TrainTopology.BCUUe[3].encap encapPk:sum(packetBytes) 0
attr interpolationmode none
attr recordingmode sum(packetBytes)
attr source encapPk
attr title "packets encapsulated, sum(packetBytes)"
par TrainTopology.BCUUe[3].ipv4.transportIn.channel typename "\"ned.IdealChannel\""
par TrainTopology.BCUUe[3].ipv4.up.out[0].channel typename "\"ned.IdealChannel\""
par TrainTopology.BCUUe[3].ipv4.lp.out[2].channel typename "\"ned.IdealChannel\""
par TrainTopology.BCUUe[3].ipv4.ifIn.channel typename "\"ned.IdealChannel\""
par TrainTopology.BCUUe[3].ipv4.configurator typename "\"inet.networklayer.configurator.ipv4.Ipv4NodeConfigurator\""
par TrainTopology.BCUUe[3].ipv4.configurator interfaceTableModule "\"TrainTopology.BCUUe[3].interfaceTable\""
par TrainTopology.BCUUe[3].ipv4.configurator routingTableModule "\"TrainTopology.BCUUe[3].ipv4.routingTable\""
par TrainTopology.BCUUe[3].ipv4.configurator networkConfiguratorModule "\"configurator\""
par TrainTopology.BCUUe[3].ipv4.configurator configureRoutingTable true
par TrainTopology.BCUUe[3].ipv4.routingTable typename "\"inet.networklayer.ipv4.Ipv4RoutingTable\""
par TrainTopology.BCUUe[3].ipv4.routingTable interfaceTableModule "\"TrainTopology.BCUUe[3].interfaceTable\""
par TrainTopology.BCUUe[3].ipv4.routingTable routerId "\"auto\""
par TrainTopology.BCUUe[3].ipv4.routingTable netmaskRoutes "\"*\""
par TrainTopology.BCUUe[3].ipv4.routingTable forwarding true
par TrainTopology.BCUUe[3].ipv4.routingTable multicastForwarding false
par TrainTopology.BCUUe[3].ipv4.routingTable useAdminDist false
par TrainTopology.BCUUe[3].ipv4.routingTable routingFile "\"\""
par TrainTopology.BCUUe[3].ipv4.natTable typename "\"inet.networklayer.ipv4.Ipv4NatTable\""
par TrainTopology.BCUUe[3].ipv4.natTable networkProtocolModule "\"^.ip\""
par TrainTopology.BCUUe[3].ipv4.natTable config "<config/> at content:1"
par TrainTopology.BCUUe[3].ipv4.up typename "\"inet.common.MessageDispatcher\""
par TrainTopology.BCUUe[3].ipv4.up displayStringTextFormat "\"processed %p pk (%l)\""
par TrainTopology.BCUUe[3].ipv4.up forwardServiceRegistration true
par TrainTopology.BCUUe[3].ipv4.up forwardProtocolRegistration true
par TrainTopology.BCUUe[3].ipv4.igmp typename "\"inet.networklayer.ipv4.Igmpv2\""
par TrainTopology.BCUUe[3].ipv4.igmp interfaceTableModule "\"TrainTopology.BCUUe[3].interfaceTable\""
par TrainTopology.BCUUe[3].ipv4.igmp routingTableModule "\"TrainTopology.BCUUe[3].ipv4.routingTable\""
par TrainTopology.BCUUe[3].ipv4.igmp crcMode "\"declared\""
attr enum declared,computed
par TrainTopology.BCUUe[3].ipv4.igmp enabled true
par TrainTopology.BCUUe[3].ipv4.igmp robustnessVariable 2
par TrainTopology.BCUUe[3].ipv4.igmp queryInterval 125s
attr unit s
par TrainTopology.BCUUe[3].ipv4.igmp queryResponseInterval 10s
attr unit s
par TrainTopology.BCUUe[3].ipv4.igmp groupMembershipInterval 260s
attr unit s
par TrainTopology.BCUUe[3].ipv4.igmp otherQuerierPresentInterval 255s
attr unit s
par TrainTopology.BCUUe[3].ipv4.igmp startupQueryInterval 31.25s
attr unit s
par TrainTopology.BCUUe[3].ipv4.igmp startupQueryCount 2
par TrainTopology.BCUUe[3].ipv4.igmp lastMemberQueryInterval 1s
attr unit s
par TrainTopology.BCUUe[3].ipv4.igmp lastMemberQueryCount 2
par TrainTopology.BCUUe[3].ipv4.igmp unsolicitedReportInterval 10s
attr unit s
par TrainTopology.BCUUe[3].ipv4.icmp typename "\"inet.networklayer.ipv4.Icmp\""
par TrainTopology.BCUUe[3].ipv4.icmp interfaceTableModule "\"TrainTopology.BCUUe[3].interfaceTable\""
par TrainTopology.BCUUe[3].ipv4.icmp routingTableModule "\"TrainTopology.BCUUe[3].ipv4.routingTable\""
par TrainTopology.BCUUe[3].ipv4.icmp crcMode "\"declared\""
attr enum declared,computed
attr mutable ""
par TrainTopology.BCUUe[3].ipv4.icmp quoteLength 8B
attr mutable ""
attr unit B
par TrainTopology.BCUUe[3].ipv4.mp typename "\"inet.common.MessageDispatcher\""
par TrainTopology.BCUUe[3].ipv4.mp displayStringTextFormat "\"processed %p pk (%l)\""
par TrainTopology.BCUUe[3].ipv4.mp forwardServiceRegistration true
par TrainTopology.BCUUe[3].ipv4.mp forwardProtocolRegistration true
par TrainTopology.BCUUe[3].ipv4.ip typename "\"inet.networklayer.ipv4.Ipv4\""
par TrainTopology.BCUUe[3].ipv4.ip interfaceTableModule "\"TrainTopology.BCUUe[3].interfaceTable\""
par TrainTopology.BCUUe[3].ipv4.ip routingTableModule "\"TrainTopology.BCUUe[3].ipv4.routingTable\""
par TrainTopology.BCUUe[3].ipv4.ip arpModule "\"TrainTopology.BCUUe[3].ipv4.arp\""
par TrainTopology.BCUUe[3].ipv4.ip icmpModule "\"TrainTopology.BCUUe[3].ipv4.icmp\""
par TrainTopology.BCUUe[3].ipv4.ip crcMode "\"declared\""
attr enum declared,computed
par TrainTopology.BCUUe[3].ipv4.ip timeToLive 32
par TrainTopology.BCUUe[3].ipv4.ip multicastTimeToLive 32
par TrainTopology.BCUUe[3].ipv4.ip fragmentTimeout 60s
attr unit s
par TrainTopology.BCUUe[3].ipv4.ip limitedBroadcast false
par TrainTopology.BCUUe[3].ipv4.ip directBroadcastInterfaces "\"\""
scalar TrainTopology.BCUUe[3].ipv4.ip packetDropAddressResolutionFailed:count 0
attr interpolationmode none
attr recordingmode count
attr source packetDropReasonIsAddressResolutionFailed(packetDropped)
attr title "packet drop: address resolution failed, count"
scalar TrainTopology.BCUUe[3].ipv4.ip packetDropAddressResolutionFailed:sum(packetBytes) 0
attr interpolationmode none
attr recordingmode sum(packetBytes)
attr source packetDropReasonIsAddressResolutionFailed(packetDropped)
attr title "packet drop: address resolution failed, sum(packetBytes)"
scalar TrainTopology.BCUUe[3].ipv4.ip packetDropHopLimitReached:count 0
attr interpolationmode none
attr recordingmode count
attr source packetDropReasonIsHopLimitReached(packetDropped)
attr title "packet drop: hop limit reached, count"
scalar TrainTopology.BCUUe[3].ipv4.ip packetDropHopLimitReached:sum(packetBytes) 0
attr interpolationmode none
attr recordingmode sum(packetBytes)
attr source packetDropReasonIsHopLimitReached(packetDropped)
attr title "packet drop: hop limit reached, sum(packetBytes)"
scalar TrainTopology.BCUUe[3].ipv4.ip packetDropForwardingDisabled:count 0
attr interpolationmode none
attr recordingmode count
attr source packetDropReasonIsForwardingDisabled(packetDropped)
attr title "packet drop: forwarding disabled, count"
scalar TrainTopology.BCUUe[3].ipv4.ip packetDropForwardingDisabled:sum(packetBytes) 0
attr interpolationmode none
attr recordingmode sum(packetBytes)
attr source packetDropReasonIsForwardingDisabled(packetDropped)
attr title "packet drop: forwarding disabled, sum(packetBytes)"
scalar TrainTopology.BCUUe[3].ipv4.ip packetDropNoInterfaceFound:count 0
attr interpolationmode none
attr recordingmode count
attr source packetDropReasonIsNoInterfaceFound(packetDropped)
attr title "packet drop: no interface found, count"
scalar TrainTopology.BCUUe[3].ipv4.ip packetDropNoInterfaceFound:sum(packetBytes) 0
attr interpolationmode none
attr recordingmode sum(packetBytes)
attr source packetDropReasonIsNoInterfaceFound(packetDropped)
attr title "packet drop: no interface found, sum(packetBytes)"
scalar TrainTopology.BCUUe[3].ipv4.ip packetDropNoRouteFound:count 0
attr interpolationmode none
attr recordingmode count
attr source packetDropReasonIsNoRouteFound(packetDropped)
attr title "packet drop: no route found, count"
scalar TrainTopology.BCUUe[3].ipv4.ip packetDropNoRouteFound:sum(packetBytes) 0
attr interpolationmode none
attr recordingmode sum(packetBytes)
attr source packetDropReasonIsNoRouteFound(packetDropped)
attr title "packet drop: no route found, sum(packetBytes)"
scalar TrainTopology.BCUUe[3].ipv4.ip packetDropUndefined:count 0
attr interpolationmode none
attr recordingmode count
attr source packetDropReasonIsUndefined(packetDropped)
attr title "packet drop: undefined, count"
scalar TrainTopology.BCUUe[3].ipv4.ip packetDropUndefined:sum(packetBytes) 0
attr interpolationmode none
attr recordingmode sum(packetBytes)
attr source packetDropReasonIsUndefined(packetDropped)
attr title "packet drop: undefined, sum(packetBytes)"
par TrainTopology.BCUUe[3].ipv4.arp typename "\"inet.networklayer.arp.ipv4.GlobalArp\""
par TrainTopology.BCUUe[3].ipv4.arp interfaceTableModule "\"TrainTopology.BCUUe[3].interfaceTable\""
par TrainTopology.BCUUe[3].ipv4.arp addressType "\"ipv4\""
attr enum ipv4,ipv6,mac,moduleid,modulepath
par TrainTopology.BCUUe[3].ipv4.lp typename "\"inet.common.MessageDispatcher\""
par TrainTopology.BCUUe[3].ipv4.lp displayStringTextFormat "\"processed %p pk (%l)\""
par TrainTopology.BCUUe[3].ipv4.lp forwardServiceRegistration true
par TrainTopology.BCUUe[3].ipv4.lp forwardProtocolRegistration true
par TrainTopology.BCUUe[3].ipv4 typename "\"inet.networklayer.ipv4.Ipv4NetworkLayer\""
par TrainTopology.BCUUe[3].ipv4 forwarding true
par TrainTopology.BCUUe[3].ipv4 multicastForwarding false
par TrainTopology.BCUUe[3].ipv4 interfaceTableModule "\"TrainTopology.BCUUe[3].interfaceTable\""
par TrainTopology.BCUUe[3].ipv4 displayStringTextFormat "\"%i\""
par TrainTopology.BCUUe[3].udp typename "\"inet.transportlayer.udp.Udp\""
par TrainTopology.BCUUe[3].udp interfaceTableModule "\"TrainTopology.BCUUe[3].interfaceTable\""
par TrainTopology.BCUUe[3].udp icmpModule "\"^.ipv4.icmp\""
par TrainTopology.BCUUe[3].udp icmpv6Module "\"^.ipv6.icmpv6\""
par TrainTopology.BCUUe[3].udp crcMode "\"declared\""
attr enum disabled,declared,computed
par TrainTopology.BCUUe[3].udp defaultMulticastLoop true
scalar TrainTopology.BCUUe[3].udp packetReceived:count 0
attr interpolationmode none
attr recordingmode count
attr source packetReceived
attr title "packets received, count"
scalar TrainTopology.BCUUe[3].udp packetReceived:sum(packetBytes) 0
attr interpolationmode none
attr recordingmode sum(packetBytes)
attr source packetReceived
attr title "packets received, sum(packetBytes)"
scalar TrainTopology.BCUUe[3].udp packetSent:count 3
attr interpolationmode none
attr recordingmode count
attr source packetSent
attr title "packets sent, count"
scalar TrainTopology.BCUUe[3].udp packetSent:sum(packetBytes) 240
attr interpolationmode none
attr recordingmode sum(packetBytes)
attr source packetSent
attr title "packets sent, sum(packetBytes)"
scalar TrainTopology.BCUUe[3].udp passedUpPk:count 0
attr interpolationmode none
attr recordingmode count
attr source packetSentToUpper
attr title "packets passed up, count"
scalar TrainTopology.BCUUe[3].udp droppedPkWrongPort:count 0
attr interpolationmode none
attr recordingmode count
attr source packetDropReasonIsNoPortFound(packetDropped)
attr title "packets dropped (wrong port), count"
scalar TrainTopology.BCUUe[3].udp droppedPkBadChecksum:count 0
attr interpolationmode none
attr recordingmode count
attr source packetDropReasonIsIncorrectlyReceived(packetDropped)
attr title "packets dropped (checksum error), count"
par TrainTopology.BCUUe[3].tcp typename "\"inet.transportlayer.tcp.Tcp\""
par TrainTopology.BCUUe[3].tcp crcMode "\"declared\""
attr enum declared,computed
par TrainTopology.BCUUe[3].tcp advertisedWindow 7504
par TrainTopology.BCUUe[3].tcp delayedAcksEnabled false
par TrainTopology.BCUUe[3].tcp nagleEnabled true
par TrainTopology.BCUUe[3].tcp limitedTransmitEnabled false
par TrainTopology.BCUUe[3].tcp increasedIWEnabled false
par TrainTopology.BCUUe[3].tcp sackSupport false
par TrainTopology.BCUUe[3].tcp windowScalingSupport false
par TrainTopology.BCUUe[3].tcp windowScalingFactor -1
par TrainTopology.BCUUe[3].tcp timestampSupport false
par TrainTopology.BCUUe[3].tcp mss 536
par TrainTopology.BCUUe[3].tcp msl 120s
attr unit s
par TrainTopology.BCUUe[3].tcp tcpAlgorithmClass "\"TcpReno\""
attr enum TcpVegas,TcpWestwood,TcpNewReno,TcpReno,TcpTahoe,TcpNoCongestionControl
par TrainTopology.BCUUe[3].tcp useDataNotification false
par TrainTopology.BCUUe[3].tcp dupthresh 3
par TrainTopology.BCUUe[3].tcp initialSsthresh 4294967295
par TrainTopology.BCUUe[3].tcp stopOperationExtraTime 0s
attr unit s
par TrainTopology.BCUUe[3].tcp stopOperationTimeout 2s
attr unit s
par TrainTopology.BCUUe[3].tcp ecnWillingness false
par TrainTopology.BCUUe[3].tcp dctcpGamma 0.0625
par TrainTopology.BCUUe[3].at typename "\"inet.common.MessageDispatcher\""
par TrainTopology.BCUUe[3].at displayStringTextFormat "\"processed %p pk (%l)\""
par TrainTopology.BCUUe[3].at forwardServiceRegistration true
par TrainTopology.BCUUe[3].at forwardProtocolRegistration true
par TrainTopology.BCUUe[3].tn typename "\"inet.common.MessageDispatcher\""
par TrainTopology.BCUUe[3].tn displayStringTextFormat "\"processed %p pk (%l)\""
par TrainTopology.BCUUe[3].tn forwardServiceRegistration true
par TrainTopology.BCUUe[3].tn forwardProtocolRegistration true
par TrainTopology.BCUUe[3].nl typename "\"inet.common.MessageDispatcher\""
par TrainTopology.BCUUe[3].nl displayStringTextFormat "\"processed %p pk (%l)\""
par TrainTopology.BCUUe[3].nl forwardServiceRegistration true
par TrainTopology.BCUUe[3].nl forwardProtocolRegistration true
par TrainTopology.BCUUe[3].dstt typename "\"TSN5GTranslator\""
par TrainTopology.BCUUe[3].dstt localPort 12340
attr mutable ""
par TrainTopology.BCUUe[3].dstt destPort 1000
attr mutable ""
par TrainTopology.BCUUe[3].dstt destAddress "\"server\""
attr mutable ""
par TrainTopology.BCUUe[3].dstt tos -1
par TrainTopology.BCUUe[3] typename "\"TsnUe\""
par TrainTopology.BCUUe[3] numApps 0
par TrainTopology.BCUUe[3] hasUdp true
par TrainTopology.BCUUe[3] hasTcp true
par TrainTopology.BCUUe[3] hasSctp false
par TrainTopology.BCUUe[3] nodeType "\"UE\""
par TrainTopology.BCUUe[3] masterId 0
attr mutable ""
par TrainTopology.BCUUe[3] macNodeId 1032
attr mutable ""
par TrainTopology.BCUUe[3] macCellId 0
attr mutable ""
par TrainTopology.BCUUe[3] nicType "\"NRNicUe\""
par TrainTopology.BCUUe[3] hasIpv4 true
par TrainTopology.BCUUe[3] hasIpv6 false
par TrainTopology.BCUUe[3] numEthInterfaces 0
par TrainTopology.BCUUe[3] extHostAddress "\"\""
par TrainTopology.BCUUe[3] numLoInterfaces 1
par TrainTopology.BCUUe[3] numPcapRecorders 0
par TrainTopology.BCUUe[3] hasRNISupport false
par TrainTopology.BCUUe[3] nrMasterId 2
attr mutable ""
par TrainTopology.BCUUe[3] nrMacNodeId 2056
attr mutable ""
par TrainTopology.BCUUe[3] nrMacCellId 1
attr mutable ""
par TrainTopology typename "\"train_topology.TrainTopology\""
par TrainTopology recordPcap false
par TrainTopology numPcapRecorders 0
par TrainTopology hasGlobalArp true
par TrainTopology numHVAC 4
par TrainTopology numFAS 4
par TrainTopology numPIS 4
par TrainTopology numTCU 4
par TrainTopology numBCU 4

