version 3
run General-0-20240127-16:46:55-7631
attr configname General
attr datetime 20240127-16:46:55
attr datetimef 20240127-164655
attr experiment General
attr inifile TSN5GPLUS.ini
attr iterationvars ""
attr iterationvarsd ""
attr iterationvarsf ""
attr measurement ""
attr network TSN5GPLUS
attr processid 7631
attr repetition 0
attr replication #0
attr resultdir results
attr runnumber 0
attr seedset 0
config image-path ../inet4.5/images:../simu5G/images
config network TSN5GPLUS
config *.*.macCellId 1
config *.*.masterId 1
config *.*.nrMacCellId 1
config *.*.nrMasterId 1
config *.tsnClient*.numApps 2
config *.tsnClient*.app[*].typename UdpApp
config *.tsnClient*.app[0].display-name besteffort
config *.tsnClient*.app[1].display-name video
config *.tsnClient*.app[*].io.destAddress "\"tsnServer\""
config *.tsnClient*.app[0].io.destPort 1000
config *.tsnClient*.app[1].io.destPort 1001
config *.tsnClient*.app[0].io.localPort 1000
config *.tsnClient*.app[1].io.localPort 1001
config *.tsnClient*.app[*].source.packetLength "1000B - 54B"
config *.tsnClient*.app[0].source.productionInterval exponential(200us)
config *.tsnClient*.app[1].source.productionInterval exponential(400us)
config *.tsnServer.numApps 2
config *.tsnServer.app[*].typename UdpEchoApp
config *.tsnServer.app[0].display-name besteffort
config *.tsnServer.app[1].display-name video
config *.tsnServer.app[0].localPort 1000
config *.tsnServer.app[1].localPort 1001
config *.tsnServer.ipv4.routingTable.routingFile "\"Server.mrt\""
config *.*.hasOutgoingStreams true
config *.*.hasIncomingStreams true
config *.tsnClient*.bridging.streamIdentifier.identifier.mapping "[{stream: \"besteffort\", packetFilter: expr(udp.destPort == 1000)},\n\t\t\t\t\t\t\t\t\t\t\t\t\t\t\t{stream: \"video\", packetFilter: expr(udp.destPort == 1001)}]"
config *.tsnClient*.bridging.streamCoder.encoder.mapping "[{stream: \"besteffort\", pcp: 0},\n\t\t\t\t\t\t\t\t\t\t\t\t\t{stream: \"video\", pcp: 4}]"
config *.tsnServer.bridging.streamIdentifier.identifier.mapping "[{stream: \"besteffort\", packetFilter: expr(udp.destPort == 1000)},\n\t\t\t\t\t\t\t\t\t\t\t\t\t\t\t{stream: \"video\", packetFilter: expr(udp.destPort == 1001)}]"
config *.tsnServer.bridging.streamCoder.encoder.mapping "[{stream: \"besteffort\", pcp: 0},\n\t\t\t\t\t\t\t\t\t\t\t\t\t{stream: \"video\", pcp: 4}]"
config *.tsnSwitch.bridging.streamCoder.decoder.mapping "[{pcp: 0, stream: \"besteffort\"},\n                                                 {pcp: 4, stream: \"video\"}]"
config *.tsnSwitch.bridging.streamCoder.encoder.mapping "[{stream: \"besteffort\", pcp: 0},\n\t\t\t\t\t\t\t\t\t\t\t\t\t{stream: \"video\", pcp: 4}]"
config *.tsnSwitch.hasIngressTrafficFiltering true
config *.tsnSwitch.bridging.streamFilter.ingress.typename SimpleIeee8021qFilter
config *.tsnSwitch.bridging.streamFilter.ingress.numStreams 2
config *.tsnSwitch.bridging.streamFilter.ingress.classifier.mapping "{besteffort: 0,video: 1}"
config *.tsnSwitch.bridging.streamFilter.ingress.*[0].display-name besteffort
config *.tsnSwitch.bridging.streamFilter.ingress.*[1].display-name video
config *.tsnSwitch.bridging.streamFilter.ingress.meter[*].typename EligibilityTimeMeter
config *.tsnSwitch.bridging.streamFilter.ingress.meter[*].committedInformationRate 20Mbps
config *.tsnSwitch.bridging.streamFilter.ingress.meter[*].committedBurstSize 10kB
config *.tsnSwitch.bridging.streamFilter.ingress.filter[*].typename EligibilityTimeFilter
config *.tsnSwitch.hasEgressTrafficShaping true
config *.tsnSwitch.bridging.directionReverser.reverser.excludeEncapsulationProtocols "[\"ieee8021qctag\"]"
config *.tsnSwitch.eth[*].macLayer.queue.numTrafficClasses 2
config *.tsnSwitch.eth[*].macLayer.queue.*[0].display-name besteffort
config *.tsnSwitch.eth[*].macLayer.queue.*[1].display-name video
config *.tsnSwitch.eth[*].macLayer.queue.queue[0].typename EligibilityTimeQueue
config *.tsnSwitch.eth[*].macLayer.queue.queue[1].typename EligibilityTimeQueue
config *.tsnSwitch.eth[*].macLayer.queue.transmissionSelectionAlgorithm[0].typename Ieee8021qAsynchronousShaper
config *.tsnSwitch.eth[*].macLayer.queue.transmissionSelectionAlgorithm[1].typename Ieee8021qAsynchronousShaper

vector 0 TSN5GPLUS.tsnServer.eth[0].phyLayer.interFrameGapInserter interpacketGap:vector ETV
attr interpolationmode sample-hold
attr recordingmode vector
attr source "count(interpacketGapStarted) - count(interpacketGapEnded)"
attr title "interpacket gap state"
attr type int
vector 1 TSN5GPLUS.tsnServer.eth[0].phyLayer.transmitter transmitting:vector ETV
attr interpolationmode sample-hold
attr recordingmode vector
attr source "count(transmissionStarted) - count(transmissionEnded)"
attr title "transmitting state"
attr type int
vector 2 TSN5GPLUS.tsnServer.udp passedUpPk:vector(count) ETV
attr interpolationmode none
attr recordingmode vector(count)
attr source packetSentToUpper
attr title "packets passed up, count"
vector 3 TSN5GPLUS.tsnServer.udp droppedPkWrongPort:vector(count) ETV
attr interpolationmode none
attr recordingmode vector(count)
attr source packetDropReasonIsNoPortFound(packetDropped)
attr title "packets dropped (wrong port), count"
vector 4 TSN5GPLUS.tsnServer.udp droppedPkBadChecksum:vector(count) ETV
attr interpolationmode none
attr recordingmode vector(count)
attr source packetDropReasonIsIncorrectlyReceived(packetDropped)
attr title "packets dropped (checksum error), count"
vector 5 TSN5GPLUS.tsnSwitch.eth[0].phyLayer.interFrameGapInserter interpacketGap:vector ETV
attr interpolationmode sample-hold
attr recordingmode vector
attr source "count(interpacketGapStarted) - count(interpacketGapEnded)"
attr title "interpacket gap state"
attr type int
vector 6 TSN5GPLUS.tsnSwitch.eth[0].phyLayer.transmitter transmitting:vector ETV
attr interpolationmode sample-hold
attr recordingmode vector
attr source "count(transmissionStarted) - count(transmissionEnded)"
attr title "transmitting state"
attr type int
vector 7 TSN5GPLUS.tsnSwitch.eth[1].phyLayer.interFrameGapInserter interpacketGap:vector ETV
attr interpolationmode sample-hold
attr recordingmode vector
attr source "count(interpacketGapStarted) - count(interpacketGapEnded)"
attr title "interpacket gap state"
attr type int
vector 8 TSN5GPLUS.tsnSwitch.eth[1].phyLayer.transmitter transmitting:vector ETV
attr interpolationmode sample-hold
attr recordingmode vector
attr source "count(transmissionStarted) - count(transmissionEnded)"
attr title "transmitting state"
attr type int
vector 9 TSN5GPLUS.upf.ppp[0].ppp transmissionState:vector ETV
attr interpolationmode sample-hold
attr recordingmode vector
attr source transmissionStateChanged
attr title "tx state"
vector 10 TSN5GPLUS.upf.udp passedUpPk:vector(count) ETV
attr interpolationmode none
attr recordingmode vector(count)
attr source packetSentToUpper
attr title "packets passed up, count"
vector 11 TSN5GPLUS.upf.udp droppedPkWrongPort:vector(count) ETV
attr interpolationmode none
attr recordingmode vector(count)
attr source packetDropReasonIsNoPortFound(packetDropped)
attr title "packets dropped (wrong port), count"
vector 12 TSN5GPLUS.upf.udp droppedPkBadChecksum:vector(count) ETV
attr interpolationmode none
attr recordingmode vector(count)
attr source packetDropReasonIsIncorrectlyReceived(packetDropped)
attr title "packets dropped (checksum error), count"
vector 13 TSN5GPLUS.gnb.pppIf.ppp transmissionState:vector ETV
attr interpolationmode sample-hold
attr recordingmode vector
attr source transmissionStateChanged
attr title "tx state"
vector 14 TSN5GPLUS.gnb.pppMEHostIf.ppp transmissionState:vector ETV
attr interpolationmode sample-hold
attr recordingmode vector
attr source transmissionStateChanged
attr title "tx state"
vector 15 TSN5GPLUS.gnb.udp passedUpPk:vector(count) ETV
attr interpolationmode none
attr recordingmode vector(count)
attr source packetSentToUpper
attr title "packets passed up, count"
vector 16 TSN5GPLUS.gnb.udp droppedPkWrongPort:vector(count) ETV
attr interpolationmode none
attr recordingmode vector(count)
attr source packetDropReasonIsNoPortFound(packetDropped)
attr title "packets dropped (wrong port), count"
vector 17 TSN5GPLUS.gnb.udp droppedPkBadChecksum:vector(count) ETV
attr interpolationmode none
attr recordingmode vector(count)
attr source packetDropReasonIsIncorrectlyReceived(packetDropped)
attr title "packets dropped (checksum error), count"
vector 18 TSN5GPLUS.tsnClient.eth[0].phyLayer.interFrameGapInserter interpacketGap:vector ETV
attr interpolationmode sample-hold
attr recordingmode vector
attr source "count(interpacketGapStarted) - count(interpacketGapEnded)"
attr title "interpacket gap state"
attr type int
vector 19 TSN5GPLUS.tsnClient.eth[0].phyLayer.transmitter transmitting:vector ETV
attr interpolationmode sample-hold
attr recordingmode vector
attr source "count(transmissionStarted) - count(transmissionEnded)"
attr title "transmitting state"
attr type int
vector 20 TSN5GPLUS.tsnClient.udp passedUpPk:vector(count) ETV
attr interpolationmode none
attr recordingmode vector(count)
attr source packetSentToUpper
attr title "packets passed up, count"
vector 21 TSN5GPLUS.tsnClient.udp droppedPkWrongPort:vector(count) ETV
attr interpolationmode none
attr recordingmode vector(count)
attr source packetDropReasonIsNoPortFound(packetDropped)
attr title "packets dropped (wrong port), count"
vector 22 TSN5GPLUS.tsnClient.udp droppedPkBadChecksum:vector(count) ETV
attr interpolationmode none
attr recordingmode vector(count)
attr source packetDropReasonIsIncorrectlyReceived(packetDropped)
attr title "packets dropped (checksum error), count"
vector 23 TSN5GPLUS.ue1.udp passedUpPk:vector(count) ETV
attr interpolationmode none
attr recordingmode vector(count)
attr source packetSentToUpper
attr title "packets passed up, count"
vector 24 TSN5GPLUS.ue1.udp droppedPkWrongPort:vector(count) ETV
attr interpolationmode none
attr recordingmode vector(count)
attr source packetDropReasonIsNoPortFound(packetDropped)
attr title "packets dropped (wrong port), count"
vector 25 TSN5GPLUS.ue1.udp droppedPkBadChecksum:vector(count) ETV
attr interpolationmode none
attr recordingmode vector(count)
attr source packetDropReasonIsIncorrectlyReceived(packetDropped)
attr title "packets dropped (checksum error), count"
vector 26 TSN5GPLUS.ue1.cellularNic.phy servingCell:vector ETV
attr recordingmode vector
attr source servingCell
attr title "ID of the serving eNodeB for the UE"
attr unit ""
vector 27 TSN5GPLUS.ue1.cellularNic.nrPhy servingCell:vector ETV
attr recordingmode vector
attr source servingCell
attr title "ID of the serving eNodeB for the UE"
attr unit ""
vector 28 TSN5GPLUS.tsnSwitch.bridging.streamFilter.ingress.meter[0] numTokens:vector ETV
attr interpolationmode linear
attr moduledisplaypath TSN5GPLUS.tsnSwitch.bridging.streamFilter.ingress.besteffort
attr recordingmode vector
attr source tokensChanged
attr title "number of tokens"
attr unit tk
vector 29 TSN5GPLUS.tsnSwitch.bridging.streamFilter.ingress.meter[1] numTokens:vector ETV
attr interpolationmode linear
attr moduledisplaypath TSN5GPLUS.tsnSwitch.bridging.streamFilter.ingress.video
attr recordingmode vector
attr source tokensChanged
attr title "number of tokens"
attr unit tk
vector 30 TSN5GPLUS.tsnSwitch.eth[0].macLayer.queue.transmissionSelectionAlgorithm[0] gateState:vector ETV
attr enum CLOSED,OPEN
attr interpolationmode sample-hold
attr moduledisplaypath TSN5GPLUS.tsnSwitch.eth[0].macLayer.queue.besteffort
attr recordingmode vector
attr source gateStateChanged
attr title "gate state"
attr type enum
vector 31 TSN5GPLUS.tsnSwitch.eth[0].macLayer.queue.transmissionSelectionAlgorithm[0] remainingEligibilityTime:vector ETV
attr interpolationmode linear
attr moduledisplaypath TSN5GPLUS.tsnSwitch.eth[0].macLayer.queue.besteffort
attr recordingmode vector
attr source remainingEligibilityTimeChanged
attr title "remaining eligibility time"
attr unit s
vector 32 TSN5GPLUS.tsnSwitch.eth[0].macLayer.queue.transmissionSelectionAlgorithm[1] gateState:vector ETV
attr enum CLOSED,OPEN
attr interpolationmode sample-hold
attr moduledisplaypath TSN5GPLUS.tsnSwitch.eth[0].macLayer.queue.video
attr recordingmode vector
attr source gateStateChanged
attr title "gate state"
attr type enum
vector 33 TSN5GPLUS.tsnSwitch.eth[0].macLayer.queue.transmissionSelectionAlgorithm[1] remainingEligibilityTime:vector ETV
attr interpolationmode linear
attr moduledisplaypath TSN5GPLUS.tsnSwitch.eth[0].macLayer.queue.video
attr recordingmode vector
attr source remainingEligibilityTimeChanged
attr title "remaining eligibility time"
attr unit s
vector 34 TSN5GPLUS.tsnSwitch.eth[1].macLayer.queue.transmissionSelectionAlgorithm[0] gateState:vector ETV
attr enum CLOSED,OPEN
attr interpolationmode sample-hold
attr moduledisplaypath TSN5GPLUS.tsnSwitch.eth[1].macLayer.queue.besteffort
attr recordingmode vector
attr source gateStateChanged
attr title "gate state"
attr type enum
vector 35 TSN5GPLUS.tsnSwitch.eth[1].macLayer.queue.transmissionSelectionAlgorithm[0] remainingEligibilityTime:vector ETV
attr interpolationmode linear
attr moduledisplaypath TSN5GPLUS.tsnSwitch.eth[1].macLayer.queue.besteffort
attr recordingmode vector
attr source remainingEligibilityTimeChanged
attr title "remaining eligibility time"
attr unit s
vector 36 TSN5GPLUS.tsnSwitch.eth[1].macLayer.queue.transmissionSelectionAlgorithm[1] gateState:vector ETV
attr enum CLOSED,OPEN
attr interpolationmode sample-hold
attr moduledisplaypath TSN5GPLUS.tsnSwitch.eth[1].macLayer.queue.video
attr recordingmode vector
attr source gateStateChanged
attr title "gate state"
attr type enum
vector 37 TSN5GPLUS.tsnSwitch.eth[1].macLayer.queue.transmissionSelectionAlgorithm[1] remainingEligibilityTime:vector ETV
attr interpolationmode linear
attr moduledisplaypath TSN5GPLUS.tsnSwitch.eth[1].macLayer.queue.video
attr recordingmode vector
attr source remainingEligibilityTimeChanged
attr title "remaining eligibility time"
attr unit s
vector 38 TSN5GPLUS.tsnClient.app[0].source packetLengths:vector ETV
attr interpolationmode none
attr moduledisplaypath TSN5GPLUS.tsnClient.besteffort.source
attr recordingmode vector
attr source packetLength(packetPushed)
attr title "packet lengths"
attr unit b
vector 39 TSN5GPLUS.tsnClient.app[1].source packetLengths:vector ETV
attr interpolationmode none
attr moduledisplaypath TSN5GPLUS.tsnClient.video.source
attr recordingmode vector
attr source packetLength(packetPushed)
attr title "packet lengths"
attr unit b
vector 40 TSN5GPLUS.tsnSwitch.bridging.streamFilter.ingress.gate[0] gateState:vector ETV
attr enum CLOSED,OPEN
attr interpolationmode sample-hold
attr moduledisplaypath TSN5GPLUS.tsnSwitch.bridging.streamFilter.ingress.besteffort
attr recordingmode vector
attr source gateStateChanged
attr title "gate state"
attr type enum
vector 41 TSN5GPLUS.tsnSwitch.bridging.streamFilter.ingress.gate[1] gateState:vector ETV
attr enum CLOSED,OPEN
attr interpolationmode sample-hold
attr moduledisplaypath TSN5GPLUS.tsnSwitch.bridging.streamFilter.ingress.video
attr recordingmode vector
attr source gateStateChanged
attr title "gate state"
attr type enum
vector 42 TSN5GPLUS.tsnSwitch.eth[0].macLayer.queue.transmissionGate[0] gateState:vector ETV
attr enum CLOSED,OPEN
attr interpolationmode sample-hold
attr moduledisplaypath TSN5GPLUS.tsnSwitch.eth[0].macLayer.queue.besteffort
attr recordingmode vector
attr source gateStateChanged
attr title "gate state"
attr type enum
vector 43 TSN5GPLUS.tsnSwitch.eth[0].macLayer.queue.transmissionGate[0] guardBandState:vector ETV
attr enum ON,OFF
attr interpolationmode sample-hold
attr moduledisplaypath TSN5GPLUS.tsnSwitch.eth[0].macLayer.queue.besteffort
attr recordingmode vector
attr source guardBandStateChanged
attr title "guard band state"
attr type enum
vector 44 TSN5GPLUS.tsnSwitch.eth[0].macLayer.queue.transmissionGate[1] gateState:vector ETV
attr enum CLOSED,OPEN
attr interpolationmode sample-hold
attr moduledisplaypath TSN5GPLUS.tsnSwitch.eth[0].macLayer.queue.video
attr recordingmode vector
attr source gateStateChanged
attr title "gate state"
attr type enum
vector 45 TSN5GPLUS.tsnSwitch.eth[0].macLayer.queue.transmissionGate[1] guardBandState:vector ETV
attr enum ON,OFF
attr interpolationmode sample-hold
attr moduledisplaypath TSN5GPLUS.tsnSwitch.eth[0].macLayer.queue.video
attr recordingmode vector
attr source guardBandStateChanged
attr title "guard band state"
attr type enum
vector 46 TSN5GPLUS.tsnSwitch.eth[1].macLayer.queue.transmissionGate[0] gateState:vector ETV
attr enum CLOSED,OPEN
attr interpolationmode sample-hold
attr moduledisplaypath TSN5GPLUS.tsnSwitch.eth[1].macLayer.queue.besteffort
attr recordingmode vector
attr source gateStateChanged
attr title "gate state"
attr type enum
vector 47 TSN5GPLUS.tsnSwitch.eth[1].macLayer.queue.transmissionGate[0] guardBandState:vector ETV
attr enum ON,OFF
attr interpolationmode sample-hold
attr moduledisplaypath TSN5GPLUS.tsnSwitch.eth[1].macLayer.queue.besteffort
attr recordingmode vector
attr source guardBandStateChanged
attr title "guard band state"
attr type enum
vector 48 TSN5GPLUS.tsnSwitch.eth[1].macLayer.queue.transmissionGate[1] gateState:vector ETV
attr enum CLOSED,OPEN
attr interpolationmode sample-hold
attr moduledisplaypath TSN5GPLUS.tsnSwitch.eth[1].macLayer.queue.video
attr recordingmode vector
attr source gateStateChanged
attr title "gate state"
attr type enum
vector 49 TSN5GPLUS.tsnSwitch.eth[1].macLayer.queue.transmissionGate[1] guardBandState:vector ETV
attr enum ON,OFF
attr interpolationmode sample-hold
attr moduledisplaypath TSN5GPLUS.tsnSwitch.eth[1].macLayer.queue.video
attr recordingmode vector
attr source guardBandStateChanged
attr title "guard band state"
attr type enum
vector 50 TSN5GPLUS.tsnClient.app[0].io packetSent:vector(packetBytes) ETV
attr interpolationmode none
attr moduledisplaypath TSN5GPLUS.tsnClient.besteffort.io
attr recordingmode vector(packetBytes)
attr source packetSent
attr title "packets sent, packetBytes"
vector 51 TSN5GPLUS.tsnClient.app[1].io packetSent:vector(packetBytes) ETV
attr interpolationmode none
attr moduledisplaypath TSN5GPLUS.tsnClient.video.io
attr recordingmode vector(packetBytes)
attr source packetSent
attr title "packets sent, packetBytes"
vector 52 TSN5GPLUS.tsnClient.udp packetSent:vector(packetBytes) ETV
attr interpolationmode none
attr recordingmode vector(packetBytes)
attr source packetSent
attr title "packets sent, packetBytes"
vector 53 TSN5GPLUS.tsnClient.bridging.streamIdentifier.identifier incomingPacketLengths:vector ETV
attr interpolationmode none
attr recordingmode vector
attr source "packetLength(merge(packetPushedIn, packetPulledIn))"
attr title "incoming packet lengths"
attr unit b
vector 54 TSN5GPLUS.tsnClient.bridging.streamIdentifier.identifier outgoingPacketLengths:vector ETV
attr interpolationmode none
attr recordingmode vector
attr source "packetLength(merge(packetPushedOut, packetPulledOut))"
attr title "outgoing packet lengths"
attr unit b
vector 55 TSN5GPLUS.tsnClient.bridging.streamCoder.encoder incomingPacketLengths:vector ETV
attr interpolationmode none
attr recordingmode vector
attr source "packetLength(merge(packetPushedIn, packetPulledIn))"
attr title "incoming packet lengths"
attr unit b
vector 56 TSN5GPLUS.tsnClient.bridging.streamCoder.encoder outgoingPacketLengths:vector ETV
attr interpolationmode none
attr recordingmode vector
attr source "packetLength(merge(packetPushedOut, packetPulledOut))"
attr title "outgoing packet lengths"
attr unit b
vector 57 TSN5GPLUS.tsnClient.ieee8021q.qTagHeaderInserter incomingPacketLengths:vector ETV
attr interpolationmode none
attr recordingmode vector
attr source "packetLength(merge(packetPushedIn, packetPulledIn))"
attr title "incoming packet lengths"
attr unit b
vector 58 TSN5GPLUS.tsnClient.ieee8021q.qTagHeaderInserter outgoingPacketLengths:vector ETV
attr interpolationmode none
attr recordingmode vector
attr source "packetLength(merge(packetPushedOut, packetPulledOut))"
attr title "outgoing packet lengths"
attr unit b
vector 59 TSN5GPLUS.tsnClient.ethernet.macHeaderInserter incomingPacketLengths:vector ETV
attr interpolationmode none
attr recordingmode vector
attr source "packetLength(merge(packetPushedIn, packetPulledIn))"
attr title "incoming packet lengths"
attr unit b
vector 60 TSN5GPLUS.tsnClient.ethernet.macHeaderInserter outgoingPacketLengths:vector ETV
attr interpolationmode none
attr recordingmode vector
attr source "packetLength(merge(packetPushedOut, packetPulledOut))"
attr title "outgoing packet lengths"
attr unit b
vector 61 TSN5GPLUS.tsnClient.ethernet.paddingInserter incomingPacketLengths:vector ETV
attr interpolationmode none
attr recordingmode vector
attr source "packetLength(merge(packetPushedIn, packetPulledIn))"
attr title "incoming packet lengths"
attr unit b
vector 62 TSN5GPLUS.tsnClient.ethernet.paddingInserter outgoingPacketLengths:vector ETV
attr interpolationmode none
attr recordingmode vector
attr source "packetLength(merge(packetPushedOut, packetPulledOut))"
attr title "outgoing packet lengths"
attr unit b
vector 63 TSN5GPLUS.tsnClient.ethernet.fcsInserter incomingPacketLengths:vector ETV
attr interpolationmode none
attr recordingmode vector
attr source "packetLength(merge(packetPushedIn, packetPulledIn))"
attr title "incoming packet lengths"
attr unit b
vector 64 TSN5GPLUS.tsnClient.ethernet.fcsInserter outgoingPacketLengths:vector ETV
attr interpolationmode none
attr recordingmode vector
attr source "packetLength(merge(packetPushedOut, packetPulledOut))"
attr title "outgoing packet lengths"
attr unit b
vector 65 TSN5GPLUS.tsnClient.eth[0].macLayer.queue incomingPacketLengths:vector ETV
attr interpolationmode none
attr recordingmode vector
attr source packetLength(packetPushStarted)
attr title "incoming packet lengths"
attr unit b
vector 66 TSN5GPLUS.tsnClient.eth[0].macLayer.queue queueLength:vector ETV
attr autoWarmupFilter false
attr interpolationmode sample-hold
attr recordingmode vector
attr source "warmup(atomic(constant0(packetPushEnded) + count(packetPushStarted) - count(packetPulled) - count(packetRemoved) - count(packetDropped)))"
attr title "queue length"
attr unit pk
vector 67 TSN5GPLUS.tsnClient.eth[0].macLayer.queue queueBitLength:vector ETV
attr autoWarmupFilter false
attr interpolationmode sample-hold
attr recordingmode vector
attr source "warmup(atomic(constant0(packetPushEnded) + sum(packetLength(packetPushStarted)) - sum(packetLength(packetPulled)) - sum(packetLength(packetRemoved)) - sum(packetLength(packetDropped))))"
attr title "queue bit length"
attr unit b
vector 68 TSN5GPLUS.tsnClient.eth[0].macLayer.queue queueingTime:vector ETV
attr interpolationmode none
attr recordingmode vector
attr source queueingTime(packetPulled)
attr title "queueing times"
attr unit s
vector 69 TSN5GPLUS.tsnClient.eth[0].macLayer.queue outgoingPacketLengths:vector ETV
attr interpolationmode none
attr recordingmode vector
attr source packetLength(packetPulled)
attr title "outgoing packet lengths"
attr unit b
vector 70 TSN5GPLUS.tsnClient.eth[0].macLayer.server incomingPacketLengths:vector ETV
attr interpolationmode none
attr recordingmode vector
attr source packetLength(packetPulled)
attr title "incoming packet lengths"
attr unit b
vector 71 TSN5GPLUS.tsnClient.eth[0].macLayer.server outgoingPacketLengths:vector ETV
attr interpolationmode none
attr recordingmode vector
attr source packetLength(packetPushed)
attr title "outgoing packet lengths"
attr unit b
vector 72 TSN5GPLUS.tsnClient.eth[0].macLayer.outboundEmitter incomingPacketLengths:vector ETV
attr interpolationmode none
attr recordingmode vector
attr source "packetLength(merge(packetPushedIn, packetPulledIn))"
attr title "incoming packet lengths"
attr unit b
vector 73 TSN5GPLUS.tsnClient.eth[0].macLayer.outboundEmitter outgoingPacketLengths:vector ETV
attr interpolationmode none
attr recordingmode vector
attr source "packetLength(merge(packetPushedOut, packetPulledOut))"
attr title "outgoing packet lengths"
attr unit b
vector 74 TSN5GPLUS.tsnClient.eth[0].phyLayer.phyHeaderInserter incomingPacketLengths:vector ETV
attr interpolationmode none
attr recordingmode vector
attr source "packetLength(merge(packetPushedIn, packetPulledIn))"
attr title "incoming packet lengths"
attr unit b
vector 75 TSN5GPLUS.tsnClient.eth[0].phyLayer.phyHeaderInserter outgoingPacketLengths:vector ETV
attr interpolationmode none
attr recordingmode vector
attr source "packetLength(merge(packetPushedOut, packetPulledOut))"
attr title "outgoing packet lengths"
attr unit b
vector 76 TSN5GPLUS.tsnClient.eth[0].phyLayer.outboundEmitter incomingPacketLengths:vector ETV
attr interpolationmode none
attr recordingmode vector
attr source "packetLength(merge(packetPushedIn, packetPulledIn))"
attr title "incoming packet lengths"
attr unit b
vector 77 TSN5GPLUS.tsnClient.eth[0].phyLayer.outboundEmitter outgoingPacketLengths:vector ETV
attr interpolationmode none
attr recordingmode vector
attr source "packetLength(merge(packetPushedOut, packetPulledOut))"
attr title "outgoing packet lengths"
attr unit b
vector 78 TSN5GPLUS.tsnClient.eth[0].phyLayer.transmitter transmissionTime:vector ETV
attr interpolationmode none
attr recordingmode vector
attr source packetDuration(transmissionEnded)
attr title "transmission time"
attr unit s
vector 79 TSN5GPLUS.ue1.udp packetSent:vector(packetBytes) ETV
attr interpolationmode none
attr recordingmode vector(packetBytes)
attr source packetSent
attr title "packets sent, packetBytes"
vector 80 TSN5GPLUS.ue1.cellularNic.pdcpRrc receivedPacketFromUpperLayer:vector(packetBytes) ETV
attr interpolationmode none
attr recordingmode vector(packetBytes)
attr source receivedPacketFromUpperLayer
vector 81 TSN5GPLUS.ue1.cellularNic.pdcpRrc sentPacketToLowerLayer:vector(packetBytes) ETV
attr interpolationmode none
attr recordingmode vector(packetBytes)
attr source sentPacketToLowerLayer
vector 82 TSN5GPLUS.ue1.cellularNic.nrRlc.um receivedPacketFromUpperLayer:vector(packetBytes) ETV
attr interpolationmode none
attr recordingmode vector(packetBytes)
attr source receivedPacketFromUpperLayer
vector 83 TSN5GPLUS.ue1.cellularNic.nrMac receivedPacketFromUpperLayer:vector(packetBytes) ETV
attr interpolationmode none
attr recordingmode vector(packetBytes)
attr source receivedPacketFromUpperLayer
vector 84 TSN5GPLUS.gnb.cellularNic.mac avgServedBlocksUl:vector ETV
attr recordingmode vector
attr source avgServedBlocksUl
attr title "Avg Served Blocks Ul"
attr unit blocks
vector 85 TSN5GPLUS.gnb.cellularNic.mac avgServedBlocksDl:vector ETV
attr recordingmode vector
attr source avgServedBlocksDl
attr title "Avg Served Blocks Dl"
attr unit blocks
vector 86 TSN5GPLUS.ue1.cellularNic.nrMac sentPacketToLowerLayer:vector(packetBytes) ETV
attr interpolationmode none
attr recordingmode vector(packetBytes)
attr source sentPacketToLowerLayer
vector 87 TSN5GPLUS.ue1.cellularNic.channelModel[0] measuredSinrUl:vector ETV
attr recordingmode vector
attr source measuredSinrUl
attr title "SINR measured at feedback computation, UL"
attr unit dB
vector 88 TSN5GPLUS.ue1.cellularNic.channelModel[0] measuredSinrDl:vector ETV
attr recordingmode vector
attr source measuredSinrDl
attr title "SINR measured at feedback computation, DL"
attr unit dB
vector 89 TSN5GPLUS.gnb.cellularNic.mac receivedPacketFromLowerLayer:vector(packetBytes) ETV
attr interpolationmode none
attr recordingmode vector(packetBytes)
attr source receivedPacketFromLowerLayer
vector 90 TSN5GPLUS.ue1.cellularNic.nrChannelModel[0] measuredSinrUl:vector ETV
attr recordingmode vector
attr source measuredSinrUl
attr title "SINR measured at feedback computation, UL"
attr unit dB
vector 91 TSN5GPLUS.ue1.cellularNic.nrChannelModel[0] measuredSinrDl:vector ETV
attr recordingmode vector
attr source measuredSinrDl
attr title "SINR measured at feedback computation, DL"
attr unit dB
vector 92 TSN5GPLUS.gnb.cellularNic.mac sentPacketToLowerLayer:vector(packetBytes) ETV
attr interpolationmode none
attr recordingmode vector(packetBytes)
attr source sentPacketToLowerLayer
vector 93 TSN5GPLUS.ue1.cellularNic.nrMac receivedPacketFromLowerLayer:vector(packetBytes) ETV
attr interpolationmode none
attr recordingmode vector(packetBytes)
attr source receivedPacketFromLowerLayer
vector 94 TSN5GPLUS.ue1.cellularNic.nrMac sentPacketToUpperLayer:vector(packetBytes) ETV
attr interpolationmode none
attr recordingmode vector(packetBytes)
attr source sentPacketToUpperLayer
vector 95 TSN5GPLUS.ue1.cellularNic.nrRlc.um rlcPacketLossUl:vector ETV
attr recordingmode vector
attr source rlcPacketLossUl
attr title "rlc Packet Loss"
attr unit ""
vector 96 TSN5GPLUS.ue1.cellularNic.nrRlc.um sentPacketToLowerLayer:vector(packetBytes) ETV
attr interpolationmode none
attr recordingmode vector(packetBytes)
attr source sentPacketToLowerLayer
vector 97 TSN5GPLUS.ue1.cellularNic.nrPhy averageCqiUl:vector ETV
attr recordingmode vector
attr source averageCqiUl
attr title "Average Cqi reported in UL"
attr unit cqi
vector 98 TSN5GPLUS.ue1.cellularNic.nrChannelModel[0] rcvdSinrUl:vector ETV
attr recordingmode vector
attr source rcvdSinrUl
attr title "SINR measured at packet reception, UL"
attr unit dB
vector 99 TSN5GPLUS.ue1.cellularNic.nrMac macDelayUl:vector ETV
attr recordingmode vector
attr source macDelayUl
attr title "Delay at the MAC layer UL"
attr unit s
vector 100 TSN5GPLUS.gnb.cellularNic.mac sentPacketToUpperLayer:vector(packetBytes) ETV
attr interpolationmode none
attr recordingmode vector(packetBytes)
attr source sentPacketToUpperLayer
vector 101 TSN5GPLUS.gnb.cellularNic.rlc.um receivedPacketFromLowerLayer:vector(packetBytes) ETV
attr interpolationmode none
attr recordingmode vector(packetBytes)
attr source receivedPacketFromLowerLayer
vector 102 TSN5GPLUS.ue1.cellularNic.nrRlc.um rlcPduThroughputUl:vector ETV
attr recordingmode vector
attr source rlcPduThroughputUl
attr title "Throughput at the rlc layer UL"
attr unit Bps
vector 103 TSN5GPLUS.ue1.cellularNic.nrRlc.um rlcPduDelayUl:vector ETV
attr recordingmode vector
attr source rlcPduDelayUl
attr title "Delay at the rlc layer UL"
attr unit s
vector 104 TSN5GPLUS.ue1.cellularNic.nrRlc.um rlcPduPacketLossUl:vector ETV
attr recordingmode vector
attr source rlcPduPacketLossUl
attr title "rlc Packet Loss"
attr unit ""
vector 105 TSN5GPLUS.ue1.cellularNic.nrMac harqErrorRate_1st_Ul:vector ETV
attr recordingmode vector
attr source harqErrorRate_1st_Ul
attr title "Harq Error Rate Ul (1st tx)"
attr unit ""
vector 106 TSN5GPLUS.ue1.cellularNic.nrMac harqErrorRateUl:vector ETV
attr recordingmode vector
attr source harqErrorRateUl
attr title "Harq Error Rate Ul"
attr unit ""
vector 107 TSN5GPLUS.ue1.cellularNic.nrMac harqTxAttemptsUl:vector ETV
attr recordingmode vector
attr source harqTxAttemptsUl
attr title "Harq Tx Attempts Ul"
attr unit ""
vector 108 TSN5GPLUS.tsnClient.bridging.streamIdentifier.identifier incomingDataRate:vector ETV
attr interpolationmode linear
attr recordingmode vector
attr source "throughput(merge(packetPushedIn, packetPulledIn))"
attr title "incoming data rate"
attr unit bps
vector 109 TSN5GPLUS.tsnClient.bridging.streamIdentifier.identifier outgoingDataRate:vector ETV
attr interpolationmode linear
attr recordingmode vector
attr source "throughput(merge(packetPushedOut, packetPulledOut))"
attr title "outgoing data rate"
attr unit bps
vector 110 TSN5GPLUS.tsnClient.bridging.streamCoder.encoder incomingDataRate:vector ETV
attr interpolationmode linear
attr recordingmode vector
attr source "throughput(merge(packetPushedIn, packetPulledIn))"
attr title "incoming data rate"
attr unit bps
vector 111 TSN5GPLUS.tsnClient.bridging.streamCoder.encoder outgoingDataRate:vector ETV
attr interpolationmode linear
attr recordingmode vector
attr source "throughput(merge(packetPushedOut, packetPulledOut))"
attr title "outgoing data rate"
attr unit bps
vector 112 TSN5GPLUS.tsnClient.ieee8021q.qTagHeaderInserter incomingDataRate:vector ETV
attr interpolationmode linear
attr recordingmode vector
attr source "throughput(merge(packetPushedIn, packetPulledIn))"
attr title "incoming data rate"
attr unit bps
vector 113 TSN5GPLUS.tsnClient.ieee8021q.qTagHeaderInserter outgoingDataRate:vector ETV
attr interpolationmode linear
attr recordingmode vector
attr source "throughput(merge(packetPushedOut, packetPulledOut))"
attr title "outgoing data rate"
attr unit bps
vector 114 TSN5GPLUS.tsnClient.ethernet.macHeaderInserter incomingDataRate:vector ETV
attr interpolationmode linear
attr recordingmode vector
attr source "throughput(merge(packetPushedIn, packetPulledIn))"
attr title "incoming data rate"
attr unit bps
vector 115 TSN5GPLUS.tsnClient.ethernet.macHeaderInserter outgoingDataRate:vector ETV
attr interpolationmode linear
attr recordingmode vector
attr source "throughput(merge(packetPushedOut, packetPulledOut))"
attr title "outgoing data rate"
attr unit bps
vector 116 TSN5GPLUS.tsnClient.ethernet.paddingInserter incomingDataRate:vector ETV
attr interpolationmode linear
attr recordingmode vector
attr source "throughput(merge(packetPushedIn, packetPulledIn))"
attr title "incoming data rate"
attr unit bps
vector 117 TSN5GPLUS.tsnClient.ethernet.paddingInserter outgoingDataRate:vector ETV
attr interpolationmode linear
attr recordingmode vector
attr source "throughput(merge(packetPushedOut, packetPulledOut))"
attr title "outgoing data rate"
attr unit bps
vector 118 TSN5GPLUS.tsnClient.ethernet.fcsInserter incomingDataRate:vector ETV
attr interpolationmode linear
attr recordingmode vector
attr source "throughput(merge(packetPushedIn, packetPulledIn))"
attr title "incoming data rate"
attr unit bps
vector 119 TSN5GPLUS.tsnClient.ethernet.fcsInserter outgoingDataRate:vector ETV
attr interpolationmode linear
attr recordingmode vector
attr source "throughput(merge(packetPushedOut, packetPulledOut))"
attr title "outgoing data rate"
attr unit bps
vector 120 TSN5GPLUS.tsnClient.eth[0].macLayer.queue incomingDataRate:vector ETV
attr interpolationmode linear
attr recordingmode vector
attr source throughput(packetPushStarted)
attr title "incoming datarate"
attr unit bps
vector 121 TSN5GPLUS.tsnClient.eth[0].phyLayer.transmitter utilization:vector ETV
attr interpolationmode linear
attr recordingmode vector
attr source "100 * utilization(count(transmissionStarted) - count(transmissionEnded))"
attr title utilization
attr unit %
vector 122 TSN5GPLUS.tsnClient.eth[0].macLayer.queue outgoingDataRate:vector ETV
attr interpolationmode linear
attr recordingmode vector
attr source throughput(packetPulled)
attr title "outgoing datarate"
attr unit bps
vector 123 TSN5GPLUS.tsnClient.eth[0].macLayer.server incomingDataRate:vector ETV
attr interpolationmode linear
attr recordingmode vector
attr source throughput(packetPulled)
attr title "incoming datarate"
attr unit bps
vector 124 TSN5GPLUS.tsnClient.eth[0].macLayer.server outgoingDataRate:vector ETV
attr interpolationmode linear
attr recordingmode vector
attr source throughput(packetPushed)
attr title "outgoing datarate"
attr unit bps
vector 125 TSN5GPLUS.tsnClient.eth[0].macLayer.outboundEmitter incomingDataRate:vector ETV
attr interpolationmode linear
attr recordingmode vector
attr source "throughput(merge(packetPushedIn, packetPulledIn))"
attr title "incoming data rate"
attr unit bps
vector 126 TSN5GPLUS.tsnClient.eth[0].macLayer.outboundEmitter outgoingDataRate:vector ETV
attr interpolationmode linear
attr recordingmode vector
attr source "throughput(merge(packetPushedOut, packetPulledOut))"
attr title "outgoing data rate"
attr unit bps
vector 127 TSN5GPLUS.tsnClient.eth[0].phyLayer.phyHeaderInserter incomingDataRate:vector ETV
attr interpolationmode linear
attr recordingmode vector
attr source "throughput(merge(packetPushedIn, packetPulledIn))"
attr title "incoming data rate"
attr unit bps
vector 128 TSN5GPLUS.tsnClient.eth[0].phyLayer.phyHeaderInserter outgoingDataRate:vector ETV
attr interpolationmode linear
attr recordingmode vector
attr source "throughput(merge(packetPushedOut, packetPulledOut))"
attr title "outgoing data rate"
attr unit bps
vector 129 TSN5GPLUS.tsnClient.eth[0].phyLayer.outboundEmitter incomingDataRate:vector ETV
attr interpolationmode linear
attr recordingmode vector
attr source "throughput(merge(packetPushedIn, packetPulledIn))"
attr title "incoming data rate"
attr unit bps
vector 130 TSN5GPLUS.tsnClient.eth[0].phyLayer.outboundEmitter outgoingDataRate:vector ETV
attr interpolationmode linear
attr recordingmode vector
attr source "throughput(merge(packetPushedOut, packetPulledOut))"
attr title "outgoing data rate"
attr unit bps
vector 131 TSN5GPLUS.tsnClient.eth[0].phyLayer.transmitter throughput:vector ETV
attr interpolationmode linear
attr recordingmode vector
attr source throughput(transmissionEnded)
attr title throughput
attr unit bps
vector 132 TSN5GPLUS.ue1.cellularNic.nrRlc.um rlcThroughputUl:vector ETV
attr recordingmode vector
attr source rlcThroughputUl
attr title "Throughput at the rlc layer UL"
attr unit Bps
vector 133 TSN5GPLUS.ue1.cellularNic.nrRlc.um rlcPacketLossTotal:vector ETV
attr recordingmode vector
attr source rlcPacketLossTotal
attr title "rlc Packet Loss"
attr unit ""
vector 134 TSN5GPLUS.ue1.cellularNic.nrRlc.um rlcDelayUl:vector ETV
attr recordingmode vector
attr source rlcDelayUl
attr title "Delay at the rlc layer UL"
attr unit s
vector 135 TSN5GPLUS.gnb.cellularNic.rlc.um sentPacketToUpperLayer:vector(packetBytes) ETV
attr interpolationmode none
attr recordingmode vector(packetBytes)
attr source sentPacketToUpperLayer
vector 136 TSN5GPLUS.gnb.cellularNic.pdcpRrc receivedPacketFromLowerLayer:vector(packetBytes) ETV
attr interpolationmode none
attr recordingmode vector(packetBytes)
attr source receivedPacketFromLowerLayer
vector 137 TSN5GPLUS.gnb.cellularNic.pdcpRrc sentPacketToUpperLayer:vector(packetBytes) ETV
attr interpolationmode none
attr recordingmode vector(packetBytes)
attr source sentPacketToUpperLayer
vector 138 TSN5GPLUS.gnb.udp packetSent:vector(packetBytes) ETV
attr interpolationmode none
attr recordingmode vector(packetBytes)
attr source packetSent
attr title "packets sent, packetBytes"
vector 139 TSN5GPLUS.gnb.pppIf.queue incomingPacketLengths:vector ETV
attr interpolationmode none
attr recordingmode vector
attr source packetLength(packetPushStarted)
attr title "incoming packet lengths"
attr unit b
vector 140 TSN5GPLUS.gnb.pppIf.queue queueingTime:vector ETV
attr interpolationmode none
attr recordingmode vector
attr source queueingTime(packetPulled)
attr title "queueing times"
attr unit s
vector 141 TSN5GPLUS.gnb.pppIf.queue outgoingPacketLengths:vector ETV
attr interpolationmode none
attr recordingmode vector
attr source packetLength(packetPulled)
attr title "outgoing packet lengths"
attr unit b
vector 142 TSN5GPLUS.gnb.pppIf.ppp rcvdPkFromHl:vector(packetBytes) ETV
attr interpolationmode none
attr recordingmode vector(packetBytes)
attr source packetReceivedFromUpper
attr title "packets received from higher layer, packetBytes"
vector 143 TSN5GPLUS.gnb.pppIf.ppp txPk:vector(packetBytes) ETV
attr interpolationmode none
attr recordingmode vector(packetBytes)
attr source packetSentToLower
attr title "packets transmitted, packetBytes"
vector 144 TSN5GPLUS.gnb.pppIf.queue queueLength:vector ETV
attr autoWarmupFilter false
attr interpolationmode sample-hold
attr recordingmode vector
attr source "warmup(atomic(constant0(packetPushEnded) + count(packetPushStarted) - count(packetPulled) - count(packetRemoved) - count(packetDropped)))"
attr title "queue length"
attr unit pk
vector 145 TSN5GPLUS.gnb.pppIf.queue queueBitLength:vector ETV
attr autoWarmupFilter false
attr interpolationmode sample-hold
attr recordingmode vector
attr source "warmup(atomic(constant0(packetPushEnded) + sum(packetLength(packetPushStarted)) - sum(packetLength(packetPulled)) - sum(packetLength(packetRemoved)) - sum(packetLength(packetDropped))))"
attr title "queue bit length"
attr unit b
vector 146 TSN5GPLUS.upf.ppp[0].ppp rxPkOk:vector(packetBytes) ETV
attr interpolationmode none
attr recordingmode vector(packetBytes)
attr source rxPkOk
attr title "packets received OK, packetBytes"
vector 147 TSN5GPLUS.upf.ppp[0].ppp passedUpPk:vector(packetBytes) ETV
attr interpolationmode none
attr recordingmode vector(packetBytes)
attr source packetSentToUpper
attr title "packets passed to higher layer, packetBytes"
vector 148 TSN5GPLUS.upf.udp packetReceived:vector(packetBytes) ETV
attr interpolationmode none
attr recordingmode vector(packetBytes)
attr source packetReceived
attr title "packets received, packetBytes"
vector 149 TSN5GPLUS.tsnSwitch.eth[1].phyLayer.receiver receptionTime:vector ETV
attr interpolationmode none
attr recordingmode vector
attr source packetDuration(receptionEnded)
attr title "reception time"
attr unit s
vector 150 TSN5GPLUS.tsnSwitch.eth[1].phyLayer.inboundEmitter incomingPacketLengths:vector ETV
attr interpolationmode none
attr recordingmode vector
attr source "packetLength(merge(packetPushedIn, packetPulledIn))"
attr title "incoming packet lengths"
attr unit b
vector 151 TSN5GPLUS.tsnSwitch.eth[1].phyLayer.inboundEmitter outgoingPacketLengths:vector ETV
attr interpolationmode none
attr recordingmode vector
attr source "packetLength(merge(packetPushedOut, packetPulledOut))"
attr title "outgoing packet lengths"
attr unit b
vector 152 TSN5GPLUS.tsnSwitch.eth[1].phyLayer.phyHeaderChecker incomingPacketLengths:vector ETV
attr interpolationmode none
attr recordingmode vector
attr source "packetLength(merge(packetPushedIn, packetPulledIn))"
attr title "incoming packet lengths"
attr unit b
vector 153 TSN5GPLUS.tsnSwitch.eth[1].phyLayer.phyHeaderChecker outgoingPacketLengths:vector ETV
attr interpolationmode none
attr recordingmode vector
attr source "packetLength(merge(packetPushedOut, packetPulledOut))"
attr title "outgoing packet lengths"
attr unit b
vector 154 TSN5GPLUS.tsnSwitch.eth[1].macLayer.inboundEmitter incomingPacketLengths:vector ETV
attr interpolationmode none
attr recordingmode vector
attr source "packetLength(merge(packetPushedIn, packetPulledIn))"
attr title "incoming packet lengths"
attr unit b
vector 155 TSN5GPLUS.tsnSwitch.eth[1].macLayer.inboundEmitter outgoingPacketLengths:vector ETV
attr interpolationmode none
attr recordingmode vector
attr source "packetLength(merge(packetPushedOut, packetPulledOut))"
attr title "outgoing packet lengths"
attr unit b
vector 156 TSN5GPLUS.tsnSwitch.eth[1].macLayer.fcsChecker incomingPacketLengths:vector ETV
attr interpolationmode none
attr recordingmode vector
attr source "packetLength(merge(packetPushedIn, packetPulledIn))"
attr title "incoming packet lengths"
attr unit b
vector 157 TSN5GPLUS.tsnSwitch.eth[1].macLayer.fcsChecker outgoingPacketLengths:vector ETV
attr interpolationmode none
attr recordingmode vector
attr source "packetLength(merge(packetPushedOut, packetPulledOut))"
attr title "outgoing packet lengths"
attr unit b
vector 158 TSN5GPLUS.tsnSwitch.ethernet.fcsChecker incomingPacketLengths:vector ETV
attr interpolationmode none
attr recordingmode vector
attr source "packetLength(merge(packetPushedIn, packetPulledIn))"
attr title "incoming packet lengths"
attr unit b
vector 159 TSN5GPLUS.tsnSwitch.ethernet.fcsChecker outgoingPacketLengths:vector ETV
attr interpolationmode none
attr recordingmode vector
attr source "packetLength(merge(packetPushedOut, packetPulledOut))"
attr title "outgoing packet lengths"
attr unit b
vector 160 TSN5GPLUS.tsnSwitch.ethernet.macHeaderChecker incomingPacketLengths:vector ETV
attr interpolationmode none
attr recordingmode vector
attr source "packetLength(merge(packetPushedIn, packetPulledIn))"
attr title "incoming packet lengths"
attr unit b
vector 161 TSN5GPLUS.tsnSwitch.ethernet.macHeaderChecker outgoingPacketLengths:vector ETV
attr interpolationmode none
attr recordingmode vector
attr source "packetLength(merge(packetPushedOut, packetPulledOut))"
attr title "outgoing packet lengths"
attr unit b
vector 162 TSN5GPLUS.tsnSwitch.ieee8021q.qTagHeaderChecker incomingPacketLengths:vector ETV
attr interpolationmode none
attr recordingmode vector
attr source "packetLength(merge(packetPushedIn, packetPulledIn))"
attr title "incoming packet lengths"
attr unit b
vector 163 TSN5GPLUS.tsnSwitch.ieee8021q.qTagHeaderChecker outgoingPacketLengths:vector ETV
attr interpolationmode none
attr recordingmode vector
attr source "packetLength(merge(packetPushedOut, packetPulledOut))"
attr title "outgoing packet lengths"
attr unit b
vector 164 TSN5GPLUS.tsnSwitch.bridging.interfaceRelay.learner incomingPacketLengths:vector ETV
attr interpolationmode none
attr recordingmode vector
attr source "packetLength(merge(packetPushedIn, packetPulledIn))"
attr title "incoming packet lengths"
attr unit b
vector 165 TSN5GPLUS.tsnSwitch.bridging.interfaceRelay.learner outgoingPacketLengths:vector ETV
attr interpolationmode none
attr recordingmode vector
attr source "packetLength(merge(packetPushedOut, packetPulledOut))"
attr title "outgoing packet lengths"
attr unit b
vector 166 TSN5GPLUS.tsnSwitch.bridging.streamCoder.decoder incomingPacketLengths:vector ETV
attr interpolationmode none
attr recordingmode vector
attr source "packetLength(merge(packetPushedIn, packetPulledIn))"
attr title "incoming packet lengths"
attr unit b
vector 167 TSN5GPLUS.tsnSwitch.bridging.streamCoder.decoder outgoingPacketLengths:vector ETV
attr interpolationmode none
attr recordingmode vector
attr source "packetLength(merge(packetPushedOut, packetPulledOut))"
attr title "outgoing packet lengths"
attr unit b
vector 168 TSN5GPLUS.tsnSwitch.bridging.streamFilter.ingress.classifier packetLengths:vector ETV
attr interpolationmode none
attr recordingmode vector
attr source packetLength(packetPushed)
attr title "packet lengths"
attr unit b
vector 169 TSN5GPLUS.tsnSwitch.bridging.streamFilter.ingress.gate[0] incomingPacketLengths:vector ETV
attr interpolationmode none
attr moduledisplaypath TSN5GPLUS.tsnSwitch.bridging.streamFilter.ingress.besteffort
attr recordingmode vector
attr source "packetLength(merge(packetPushedIn, packetPulledIn))"
attr title "incoming packet lengths"
attr unit b
vector 170 TSN5GPLUS.tsnSwitch.bridging.streamFilter.ingress.gate[0] outgoingPacketLengths:vector ETV
attr interpolationmode none
attr moduledisplaypath TSN5GPLUS.tsnSwitch.bridging.streamFilter.ingress.besteffort
attr recordingmode vector
attr source "packetLength(merge(packetPushedOut, packetPulledOut))"
attr title "outgoing packet lengths"
attr unit b
vector 171 TSN5GPLUS.tsnSwitch.bridging.streamFilter.ingress.meter[0] incomingPacketLengths:vector ETV
attr interpolationmode none
attr moduledisplaypath TSN5GPLUS.tsnSwitch.bridging.streamFilter.ingress.besteffort
attr recordingmode vector
attr source "packetLength(merge(packetPushedIn, packetPulledIn))"
attr title "incoming packet lengths"
attr unit b
vector 172 TSN5GPLUS.tsnSwitch.bridging.streamFilter.ingress.meter[0] outgoingPacketLengths:vector ETV
attr interpolationmode none
attr moduledisplaypath TSN5GPLUS.tsnSwitch.bridging.streamFilter.ingress.besteffort
attr recordingmode vector
attr source "packetLength(merge(packetPushedOut, packetPulledOut))"
attr title "outgoing packet lengths"
attr unit b
vector 173 TSN5GPLUS.tsnSwitch.bridging.streamFilter.ingress.filter[0] incomingPacketLengths:vector ETV
attr interpolationmode none
attr moduledisplaypath TSN5GPLUS.tsnSwitch.bridging.streamFilter.ingress.besteffort
attr recordingmode vector
attr source "packetLength(merge(packetPushedIn, packetPulledIn))"
attr title "incoming packet lengths"
attr unit b
vector 174 TSN5GPLUS.tsnSwitch.bridging.streamFilter.ingress.filter[0] outgoingPacketLengths:vector ETV
attr interpolationmode none
attr moduledisplaypath TSN5GPLUS.tsnSwitch.bridging.streamFilter.ingress.besteffort
attr recordingmode vector
attr source "packetLength(merge(packetPushedOut, packetPulledOut))"
attr title "outgoing packet lengths"
attr unit b
vector 175 TSN5GPLUS.tsnSwitch.bridging.streamFilter.ingress.barrier incomingPacketLengths:vector ETV
attr interpolationmode none
attr recordingmode vector
attr source "packetLength(merge(packetPushedIn, packetPulledIn))"
attr title "incoming packet lengths"
attr unit b
vector 176 TSN5GPLUS.tsnSwitch.bridging.streamFilter.ingress.barrier outgoingPacketLengths:vector ETV
attr interpolationmode none
attr recordingmode vector
attr source "packetLength(merge(packetPushedOut, packetPulledOut))"
attr title "outgoing packet lengths"
attr unit b
vector 177 TSN5GPLUS.tsnSwitch.bridging.directionReverser.reverser incomingPacketLengths:vector ETV
attr interpolationmode none
attr recordingmode vector
attr source "packetLength(merge(packetPushedIn, packetPulledIn))"
attr title "incoming packet lengths"
attr unit b
vector 178 TSN5GPLUS.tsnSwitch.bridging.directionReverser.reverser outgoingPacketLengths:vector ETV
attr interpolationmode none
attr recordingmode vector
attr source "packetLength(merge(packetPushedOut, packetPulledOut))"
attr title "outgoing packet lengths"
attr unit b
vector 179 TSN5GPLUS.tsnSwitch.bridging.streamIdentifier.identifier incomingPacketLengths:vector ETV
attr interpolationmode none
attr recordingmode vector
attr source "packetLength(merge(packetPushedIn, packetPulledIn))"
attr title "incoming packet lengths"
attr unit b
vector 180 TSN5GPLUS.tsnSwitch.bridging.streamIdentifier.identifier outgoingPacketLengths:vector ETV
attr interpolationmode none
attr recordingmode vector
attr source "packetLength(merge(packetPushedOut, packetPulledOut))"
attr title "outgoing packet lengths"
attr unit b
vector 181 TSN5GPLUS.tsnSwitch.bridging.streamCoder.encoder incomingPacketLengths:vector ETV
attr interpolationmode none
attr recordingmode vector
attr source "packetLength(merge(packetPushedIn, packetPulledIn))"
attr title "incoming packet lengths"
attr unit b
vector 182 TSN5GPLUS.tsnSwitch.bridging.streamCoder.encoder outgoingPacketLengths:vector ETV
attr interpolationmode none
attr recordingmode vector
attr source "packetLength(merge(packetPushedOut, packetPulledOut))"
attr title "outgoing packet lengths"
attr unit b
vector 183 TSN5GPLUS.tsnSwitch.ieee8021q.qTagHeaderInserter incomingPacketLengths:vector ETV
attr interpolationmode none
attr recordingmode vector
attr source "packetLength(merge(packetPushedIn, packetPulledIn))"
attr title "incoming packet lengths"
attr unit b
vector 184 TSN5GPLUS.tsnSwitch.ieee8021q.qTagHeaderInserter outgoingPacketLengths:vector ETV
attr interpolationmode none
attr recordingmode vector
attr source "packetLength(merge(packetPushedOut, packetPulledOut))"
attr title "outgoing packet lengths"
attr unit b
vector 185 TSN5GPLUS.tsnSwitch.ethernet.macHeaderInserter incomingPacketLengths:vector ETV
attr interpolationmode none
attr recordingmode vector
attr source "packetLength(merge(packetPushedIn, packetPulledIn))"
attr title "incoming packet lengths"
attr unit b
vector 186 TSN5GPLUS.tsnSwitch.ethernet.macHeaderInserter outgoingPacketLengths:vector ETV
attr interpolationmode none
attr recordingmode vector
attr source "packetLength(merge(packetPushedOut, packetPulledOut))"
attr title "outgoing packet lengths"
attr unit b
vector 187 TSN5GPLUS.tsnSwitch.ethernet.paddingInserter incomingPacketLengths:vector ETV
attr interpolationmode none
attr recordingmode vector
attr source "packetLength(merge(packetPushedIn, packetPulledIn))"
attr title "incoming packet lengths"
attr unit b
vector 188 TSN5GPLUS.tsnSwitch.ethernet.paddingInserter outgoingPacketLengths:vector ETV
attr interpolationmode none
attr recordingmode vector
attr source "packetLength(merge(packetPushedOut, packetPulledOut))"
attr title "outgoing packet lengths"
attr unit b
vector 189 TSN5GPLUS.tsnSwitch.ethernet.fcsInserter incomingPacketLengths:vector ETV
attr interpolationmode none
attr recordingmode vector
attr source "packetLength(merge(packetPushedIn, packetPulledIn))"
attr title "incoming packet lengths"
attr unit b
vector 190 TSN5GPLUS.tsnSwitch.ethernet.fcsInserter outgoingPacketLengths:vector ETV
attr interpolationmode none
attr recordingmode vector
attr source "packetLength(merge(packetPushedOut, packetPulledOut))"
attr title "outgoing packet lengths"
attr unit b
vector 191 TSN5GPLUS.tsnSwitch.eth[0].macLayer.queue incomingPacketLengths:vector ETV
attr interpolationmode none
attr recordingmode vector
attr source packetLength(localSignal(packetPushStarted))
attr title "incoming packet lengths"
attr unit b
vector 192 TSN5GPLUS.tsnSwitch.eth[0].macLayer.queue.classifier packetLengths:vector ETV
attr interpolationmode none
attr recordingmode vector
attr source packetLength(packetPushed)
attr title "packet lengths"
attr unit b
vector 193 TSN5GPLUS.tsnSwitch.eth[0].macLayer.queue.queue[0] incomingPacketLengths:vector ETV
attr interpolationmode none
attr moduledisplaypath TSN5GPLUS.tsnSwitch.eth[0].macLayer.queue.besteffort
attr recordingmode vector
attr source packetLength(packetPushStarted)
attr title "incoming packet lengths"
attr unit b
vector 194 TSN5GPLUS.tsnSwitch.eth[0].macLayer.queue.queue[0] queueLength:vector ETV
attr autoWarmupFilter false
attr interpolationmode sample-hold
attr moduledisplaypath TSN5GPLUS.tsnSwitch.eth[0].macLayer.queue.besteffort
attr recordingmode vector
attr source "warmup(atomic(constant0(packetPushEnded) + count(packetPushStarted) - count(packetPulled) - count(packetRemoved) - count(packetDropped)))"
attr title "queue length"
attr unit pk
vector 195 TSN5GPLUS.tsnSwitch.eth[0].macLayer.queue.queue[0] queueBitLength:vector ETV
attr autoWarmupFilter false
attr interpolationmode sample-hold
attr moduledisplaypath TSN5GPLUS.tsnSwitch.eth[0].macLayer.queue.besteffort
attr recordingmode vector
attr source "warmup(atomic(constant0(packetPushEnded) + sum(packetLength(packetPushStarted)) - sum(packetLength(packetPulled)) - sum(packetLength(packetRemoved)) - sum(packetLength(packetDropped))))"
attr title "queue bit length"
attr unit b
vector 196 TSN5GPLUS.tsnSwitch.eth[0].macLayer.queue queueLength:vector ETV
attr autoWarmupFilter false
attr interpolationmode sample-hold
attr recordingmode vector
attr source "warmup(atomic(constant0(localSignal(packetPushEnded)) + count(localSignal(packetPushStarted)) - count(localSignal(packetPulled)) - count(localSignal(packetRemoved)) - count(localSignal(packetDropped))))"
attr title "queue length"
attr unit pk
vector 197 TSN5GPLUS.tsnSwitch.eth[0].macLayer.queue queueBitLength:vector ETV
attr autoWarmupFilter false
attr interpolationmode sample-hold
attr recordingmode vector
attr source "warmup(atomic(constant0(localSignal(packetPushEnded)) + sum(packetLength(localSignal(packetPushStarted))) - sum(packetLength(localSignal(packetPulled))) - sum(packetLength(localSignal(packetRemoved))) - sum(packetLength(localSignal(packetDropped)))))"
attr title "queue bit length"
attr unit b
vector 198 TSN5GPLUS.tsnSwitch.eth[0].macLayer.queue.queue[0] queueingTime:vector ETV
attr interpolationmode none
attr moduledisplaypath TSN5GPLUS.tsnSwitch.eth[0].macLayer.queue.besteffort
attr recordingmode vector
attr source queueingTime(packetPulled)
attr title "queueing times"
attr unit s
vector 199 TSN5GPLUS.tsnSwitch.eth[0].macLayer.queue.queue[0] outgoingPacketLengths:vector ETV
attr interpolationmode none
attr moduledisplaypath TSN5GPLUS.tsnSwitch.eth[0].macLayer.queue.besteffort
attr recordingmode vector
attr source packetLength(packetPulled)
attr title "outgoing packet lengths"
attr unit b
vector 200 TSN5GPLUS.tsnSwitch.eth[0].macLayer.queue.transmissionSelectionAlgorithm[0] incomingPacketLengths:vector ETV
attr interpolationmode none
attr moduledisplaypath TSN5GPLUS.tsnSwitch.eth[0].macLayer.queue.besteffort
attr recordingmode vector
attr source "packetLength(merge(packetPushedIn, packetPulledIn))"
attr title "incoming packet lengths"
attr unit b
vector 201 TSN5GPLUS.tsnSwitch.eth[0].macLayer.queue.transmissionSelectionAlgorithm[0] outgoingPacketLengths:vector ETV
attr interpolationmode none
attr moduledisplaypath TSN5GPLUS.tsnSwitch.eth[0].macLayer.queue.besteffort
attr recordingmode vector
attr source "packetLength(merge(packetPushedOut, packetPulledOut))"
attr title "outgoing packet lengths"
attr unit b
vector 202 TSN5GPLUS.tsnSwitch.eth[0].macLayer.queue.transmissionGate[0] incomingPacketLengths:vector ETV
attr interpolationmode none
attr moduledisplaypath TSN5GPLUS.tsnSwitch.eth[0].macLayer.queue.besteffort
attr recordingmode vector
attr source "packetLength(merge(packetPushedIn, packetPulledIn))"
attr title "incoming packet lengths"
attr unit b
vector 203 TSN5GPLUS.tsnSwitch.eth[0].macLayer.queue.transmissionGate[0] outgoingPacketLengths:vector ETV
attr interpolationmode none
attr moduledisplaypath TSN5GPLUS.tsnSwitch.eth[0].macLayer.queue.besteffort
attr recordingmode vector
attr source "packetLength(merge(packetPushedOut, packetPulledOut))"
attr title "outgoing packet lengths"
attr unit b
vector 204 TSN5GPLUS.tsnSwitch.eth[0].macLayer.queue.transmissionSelection packetLengths:vector ETV
attr interpolationmode none
attr recordingmode vector
attr source packetLength(packetPulled)
attr title "packet lengths"
attr unit b
vector 205 TSN5GPLUS.tsnSwitch.eth[0].macLayer.queue queueingTime:vector ETV
attr interpolationmode none
attr recordingmode vector
attr source queueingTime(localSignal(packetPulled))
attr title "queueing times"
attr unit s
vector 206 TSN5GPLUS.tsnSwitch.eth[0].macLayer.queue outgoingPacketLengths:vector ETV
attr interpolationmode none
attr recordingmode vector
attr source packetLength(localSignal(packetPulled))
attr title "outgoing packet lengths"
attr unit b
vector 207 TSN5GPLUS.tsnSwitch.eth[0].macLayer.server incomingPacketLengths:vector ETV
attr interpolationmode none
attr recordingmode vector
attr source packetLength(packetPulled)
attr title "incoming packet lengths"
attr unit b
vector 208 TSN5GPLUS.tsnSwitch.eth[0].macLayer.server outgoingPacketLengths:vector ETV
attr interpolationmode none
attr recordingmode vector
attr source packetLength(packetPushed)
attr title "outgoing packet lengths"
attr unit b
vector 209 TSN5GPLUS.tsnSwitch.eth[0].macLayer.outboundEmitter incomingPacketLengths:vector ETV
attr interpolationmode none
attr recordingmode vector
attr source "packetLength(merge(packetPushedIn, packetPulledIn))"
attr title "incoming packet lengths"
attr unit b
vector 210 TSN5GPLUS.tsnSwitch.eth[0].macLayer.outboundEmitter outgoingPacketLengths:vector ETV
attr interpolationmode none
attr recordingmode vector
attr source "packetLength(merge(packetPushedOut, packetPulledOut))"
attr title "outgoing packet lengths"
attr unit b
vector 211 TSN5GPLUS.tsnSwitch.eth[0].phyLayer.phyHeaderInserter incomingPacketLengths:vector ETV
attr interpolationmode none
attr recordingmode vector
attr source "packetLength(merge(packetPushedIn, packetPulledIn))"
attr title "incoming packet lengths"
attr unit b
vector 212 TSN5GPLUS.tsnSwitch.eth[0].phyLayer.phyHeaderInserter outgoingPacketLengths:vector ETV
attr interpolationmode none
attr recordingmode vector
attr source "packetLength(merge(packetPushedOut, packetPulledOut))"
attr title "outgoing packet lengths"
attr unit b
vector 213 TSN5GPLUS.tsnSwitch.eth[0].phyLayer.outboundEmitter incomingPacketLengths:vector ETV
attr interpolationmode none
attr recordingmode vector
attr source "packetLength(merge(packetPushedIn, packetPulledIn))"
attr title "incoming packet lengths"
attr unit b
vector 214 TSN5GPLUS.tsnSwitch.eth[0].phyLayer.outboundEmitter outgoingPacketLengths:vector ETV
attr interpolationmode none
attr recordingmode vector
attr source "packetLength(merge(packetPushedOut, packetPulledOut))"
attr title "outgoing packet lengths"
attr unit b
vector 215 TSN5GPLUS.tsnSwitch.eth[0].phyLayer.transmitter transmissionTime:vector ETV
attr interpolationmode none
attr recordingmode vector
attr source packetDuration(transmissionEnded)
attr title "transmission time"
attr unit s
vector 216 TSN5GPLUS.tsnServer.eth[0].phyLayer.receiver receptionTime:vector ETV
attr interpolationmode none
attr recordingmode vector
attr source packetDuration(receptionEnded)
attr title "reception time"
attr unit s
vector 217 TSN5GPLUS.tsnServer.eth[0].phyLayer.inboundEmitter incomingPacketLengths:vector ETV
attr interpolationmode none
attr recordingmode vector
attr source "packetLength(merge(packetPushedIn, packetPulledIn))"
attr title "incoming packet lengths"
attr unit b
vector 218 TSN5GPLUS.tsnServer.eth[0].phyLayer.inboundEmitter outgoingPacketLengths:vector ETV
attr interpolationmode none
attr recordingmode vector
attr source "packetLength(merge(packetPushedOut, packetPulledOut))"
attr title "outgoing packet lengths"
attr unit b
vector 219 TSN5GPLUS.tsnServer.eth[0].phyLayer.phyHeaderChecker incomingPacketLengths:vector ETV
attr interpolationmode none
attr recordingmode vector
attr source "packetLength(merge(packetPushedIn, packetPulledIn))"
attr title "incoming packet lengths"
attr unit b
vector 220 TSN5GPLUS.tsnServer.eth[0].phyLayer.phyHeaderChecker outgoingPacketLengths:vector ETV
attr interpolationmode none
attr recordingmode vector
attr source "packetLength(merge(packetPushedOut, packetPulledOut))"
attr title "outgoing packet lengths"
attr unit b
vector 221 TSN5GPLUS.tsnServer.eth[0].macLayer.inboundEmitter incomingPacketLengths:vector ETV
attr interpolationmode none
attr recordingmode vector
attr source "packetLength(merge(packetPushedIn, packetPulledIn))"
attr title "incoming packet lengths"
attr unit b
vector 222 TSN5GPLUS.tsnServer.eth[0].macLayer.inboundEmitter outgoingPacketLengths:vector ETV
attr interpolationmode none
attr recordingmode vector
attr source "packetLength(merge(packetPushedOut, packetPulledOut))"
attr title "outgoing packet lengths"
attr unit b
vector 223 TSN5GPLUS.tsnServer.eth[0].macLayer.fcsChecker incomingPacketLengths:vector ETV
attr interpolationmode none
attr recordingmode vector
attr source "packetLength(merge(packetPushedIn, packetPulledIn))"
attr title "incoming packet lengths"
attr unit b
vector 224 TSN5GPLUS.tsnServer.eth[0].macLayer.fcsChecker outgoingPacketLengths:vector ETV
attr interpolationmode none
attr recordingmode vector
attr source "packetLength(merge(packetPushedOut, packetPulledOut))"
attr title "outgoing packet lengths"
attr unit b
vector 225 TSN5GPLUS.tsnServer.ethernet.fcsChecker incomingPacketLengths:vector ETV
attr interpolationmode none
attr recordingmode vector
attr source "packetLength(merge(packetPushedIn, packetPulledIn))"
attr title "incoming packet lengths"
attr unit b
vector 226 TSN5GPLUS.tsnServer.ethernet.fcsChecker outgoingPacketLengths:vector ETV
attr interpolationmode none
attr recordingmode vector
attr source "packetLength(merge(packetPushedOut, packetPulledOut))"
attr title "outgoing packet lengths"
attr unit b
vector 227 TSN5GPLUS.tsnServer.ethernet.macHeaderChecker incomingPacketLengths:vector ETV
attr interpolationmode none
attr recordingmode vector
attr source "packetLength(merge(packetPushedIn, packetPulledIn))"
attr title "incoming packet lengths"
attr unit b
vector 228 TSN5GPLUS.tsnServer.ethernet.macHeaderChecker outgoingPacketLengths:vector ETV
attr interpolationmode none
attr recordingmode vector
attr source "packetLength(merge(packetPushedOut, packetPulledOut))"
attr title "outgoing packet lengths"
attr unit b
vector 229 TSN5GPLUS.tsnServer.ieee8021q.qTagHeaderChecker incomingPacketLengths:vector ETV
attr interpolationmode none
attr recordingmode vector
attr source "packetLength(merge(packetPushedIn, packetPulledIn))"
attr title "incoming packet lengths"
attr unit b
vector 230 TSN5GPLUS.tsnServer.ieee8021q.qTagHeaderChecker outgoingPacketLengths:vector ETV
attr interpolationmode none
attr recordingmode vector
attr source "packetLength(merge(packetPushedOut, packetPulledOut))"
attr title "outgoing packet lengths"
attr unit b
vector 231 TSN5GPLUS.tsnServer.bridging.streamCoder.decoder incomingPacketLengths:vector ETV
attr interpolationmode none
attr recordingmode vector
attr source "packetLength(merge(packetPushedIn, packetPulledIn))"
attr title "incoming packet lengths"
attr unit b
vector 232 TSN5GPLUS.tsnServer.bridging.streamCoder.decoder outgoingPacketLengths:vector ETV
attr interpolationmode none
attr recordingmode vector
attr source "packetLength(merge(packetPushedOut, packetPulledOut))"
attr title "outgoing packet lengths"
attr unit b
vector 233 TSN5GPLUS.tsnServer.udp packetReceived:vector(packetBytes) ETV
attr interpolationmode none
attr recordingmode vector(packetBytes)
attr source packetReceived
attr title "packets received, packetBytes"
vector 234 TSN5GPLUS.tsnServer.app[0] echoedPk:vector(packetBytes) ETV
attr interpolationmode none
attr moduledisplaypath TSN5GPLUS.tsnServer.besteffort
attr recordingmode vector(packetBytes)
attr source packetSent
attr title "packets echoed, packetBytes"
vector 235 TSN5GPLUS.tsnServer.udp packetSent:vector(packetBytes) ETV
attr interpolationmode none
attr recordingmode vector(packetBytes)
attr source packetSent
attr title "packets sent, packetBytes"
vector 236 TSN5GPLUS.tsnServer.bridging.streamIdentifier.identifier incomingPacketLengths:vector ETV
attr interpolationmode none
attr recordingmode vector
attr source "packetLength(merge(packetPushedIn, packetPulledIn))"
attr title "incoming packet lengths"
attr unit b
vector 237 TSN5GPLUS.tsnServer.bridging.streamIdentifier.identifier outgoingPacketLengths:vector ETV
attr interpolationmode none
attr recordingmode vector
attr source "packetLength(merge(packetPushedOut, packetPulledOut))"
attr title "outgoing packet lengths"
attr unit b
vector 238 TSN5GPLUS.tsnServer.bridging.streamCoder.encoder incomingPacketLengths:vector ETV
attr interpolationmode none
attr recordingmode vector
attr source "packetLength(merge(packetPushedIn, packetPulledIn))"
attr title "incoming packet lengths"
attr unit b
vector 239 TSN5GPLUS.tsnServer.bridging.streamCoder.encoder outgoingPacketLengths:vector ETV
attr interpolationmode none
attr recordingmode vector
attr source "packetLength(merge(packetPushedOut, packetPulledOut))"
attr title "outgoing packet lengths"
attr unit b
vector 240 TSN5GPLUS.tsnServer.ieee8021q.qTagHeaderInserter incomingPacketLengths:vector ETV
attr interpolationmode none
attr recordingmode vector
attr source "packetLength(merge(packetPushedIn, packetPulledIn))"
attr title "incoming packet lengths"
attr unit b
vector 241 TSN5GPLUS.tsnServer.ieee8021q.qTagHeaderInserter outgoingPacketLengths:vector ETV
attr interpolationmode none
attr recordingmode vector
attr source "packetLength(merge(packetPushedOut, packetPulledOut))"
attr title "outgoing packet lengths"
attr unit b
vector 242 TSN5GPLUS.tsnServer.ethernet.macHeaderInserter incomingPacketLengths:vector ETV
attr interpolationmode none
attr recordingmode vector
attr source "packetLength(merge(packetPushedIn, packetPulledIn))"
attr title "incoming packet lengths"
attr unit b
vector 243 TSN5GPLUS.tsnServer.ethernet.macHeaderInserter outgoingPacketLengths:vector ETV
attr interpolationmode none
attr recordingmode vector
attr source "packetLength(merge(packetPushedOut, packetPulledOut))"
attr title "outgoing packet lengths"
attr unit b
vector 244 TSN5GPLUS.tsnServer.ethernet.paddingInserter incomingPacketLengths:vector ETV
attr interpolationmode none
attr recordingmode vector
attr source "packetLength(merge(packetPushedIn, packetPulledIn))"
attr title "incoming packet lengths"
attr unit b
vector 245 TSN5GPLUS.tsnServer.ethernet.paddingInserter outgoingPacketLengths:vector ETV
attr interpolationmode none
attr recordingmode vector
attr source "packetLength(merge(packetPushedOut, packetPulledOut))"
attr title "outgoing packet lengths"
attr unit b
vector 246 TSN5GPLUS.tsnServer.ethernet.fcsInserter incomingPacketLengths:vector ETV
attr interpolationmode none
attr recordingmode vector
attr source "packetLength(merge(packetPushedIn, packetPulledIn))"
attr title "incoming packet lengths"
attr unit b
vector 247 TSN5GPLUS.tsnServer.ethernet.fcsInserter outgoingPacketLengths:vector ETV
attr interpolationmode none
attr recordingmode vector
attr source "packetLength(merge(packetPushedOut, packetPulledOut))"
attr title "outgoing packet lengths"
attr unit b
vector 248 TSN5GPLUS.tsnServer.eth[0].macLayer.queue incomingPacketLengths:vector ETV
attr interpolationmode none
attr recordingmode vector
attr source packetLength(packetPushStarted)
attr title "incoming packet lengths"
attr unit b
vector 249 TSN5GPLUS.tsnServer.eth[0].macLayer.queue queueLength:vector ETV
attr autoWarmupFilter false
attr interpolationmode sample-hold
attr recordingmode vector
attr source "warmup(atomic(constant0(packetPushEnded) + count(packetPushStarted) - count(packetPulled) - count(packetRemoved) - count(packetDropped)))"
attr title "queue length"
attr unit pk
vector 250 TSN5GPLUS.tsnServer.eth[0].macLayer.queue queueBitLength:vector ETV
attr autoWarmupFilter false
attr interpolationmode sample-hold
attr recordingmode vector
attr source "warmup(atomic(constant0(packetPushEnded) + sum(packetLength(packetPushStarted)) - sum(packetLength(packetPulled)) - sum(packetLength(packetRemoved)) - sum(packetLength(packetDropped))))"
attr title "queue bit length"
attr unit b
vector 251 TSN5GPLUS.tsnServer.eth[0].macLayer.queue queueingTime:vector ETV
attr interpolationmode none
attr recordingmode vector
attr source queueingTime(packetPulled)
attr title "queueing times"
attr unit s
vector 252 TSN5GPLUS.tsnServer.eth[0].macLayer.queue outgoingPacketLengths:vector ETV
attr interpolationmode none
attr recordingmode vector
attr source packetLength(packetPulled)
attr title "outgoing packet lengths"
attr unit b
vector 253 TSN5GPLUS.tsnServer.eth[0].macLayer.server incomingPacketLengths:vector ETV
attr interpolationmode none
attr recordingmode vector
attr source packetLength(packetPulled)
attr title "incoming packet lengths"
attr unit b
vector 254 TSN5GPLUS.tsnServer.eth[0].macLayer.server outgoingPacketLengths:vector ETV
attr interpolationmode none
attr recordingmode vector
attr source packetLength(packetPushed)
attr title "outgoing packet lengths"
attr unit b
vector 255 TSN5GPLUS.tsnServer.eth[0].macLayer.outboundEmitter incomingPacketLengths:vector ETV
attr interpolationmode none
attr recordingmode vector
attr source "packetLength(merge(packetPushedIn, packetPulledIn))"
attr title "incoming packet lengths"
attr unit b
vector 256 TSN5GPLUS.tsnServer.eth[0].macLayer.outboundEmitter outgoingPacketLengths:vector ETV
attr interpolationmode none
attr recordingmode vector
attr source "packetLength(merge(packetPushedOut, packetPulledOut))"
attr title "outgoing packet lengths"
attr unit b
vector 257 TSN5GPLUS.tsnServer.eth[0].phyLayer.phyHeaderInserter incomingPacketLengths:vector ETV
attr interpolationmode none
attr recordingmode vector
attr source "packetLength(merge(packetPushedIn, packetPulledIn))"
attr title "incoming packet lengths"
attr unit b
vector 258 TSN5GPLUS.tsnServer.eth[0].phyLayer.phyHeaderInserter outgoingPacketLengths:vector ETV
attr interpolationmode none
attr recordingmode vector
attr source "packetLength(merge(packetPushedOut, packetPulledOut))"
attr title "outgoing packet lengths"
attr unit b
vector 259 TSN5GPLUS.tsnServer.eth[0].phyLayer.outboundEmitter incomingPacketLengths:vector ETV
attr interpolationmode none
attr recordingmode vector
attr source "packetLength(merge(packetPushedIn, packetPulledIn))"
attr title "incoming packet lengths"
attr unit b
vector 260 TSN5GPLUS.tsnServer.eth[0].phyLayer.outboundEmitter outgoingPacketLengths:vector ETV
attr interpolationmode none
attr recordingmode vector
attr source "packetLength(merge(packetPushedOut, packetPulledOut))"
attr title "outgoing packet lengths"
attr unit b
vector 261 TSN5GPLUS.tsnServer.eth[0].phyLayer.transmitter transmissionTime:vector ETV
attr interpolationmode none
attr recordingmode vector
attr source packetDuration(transmissionEnded)
attr title "transmission time"
attr unit s
vector 262 TSN5GPLUS.tsnSwitch.eth[0].phyLayer.receiver receptionTime:vector ETV
attr interpolationmode none
attr recordingmode vector
attr source packetDuration(receptionEnded)
attr title "reception time"
attr unit s
vector 263 TSN5GPLUS.tsnSwitch.eth[0].phyLayer.inboundEmitter incomingPacketLengths:vector ETV
attr interpolationmode none
attr recordingmode vector
attr source "packetLength(merge(packetPushedIn, packetPulledIn))"
attr title "incoming packet lengths"
attr unit b
vector 264 TSN5GPLUS.tsnSwitch.eth[0].phyLayer.inboundEmitter outgoingPacketLengths:vector ETV
attr interpolationmode none
attr recordingmode vector
attr source "packetLength(merge(packetPushedOut, packetPulledOut))"
attr title "outgoing packet lengths"
attr unit b
vector 265 TSN5GPLUS.tsnSwitch.eth[0].phyLayer.phyHeaderChecker incomingPacketLengths:vector ETV
attr interpolationmode none
attr recordingmode vector
attr source "packetLength(merge(packetPushedIn, packetPulledIn))"
attr title "incoming packet lengths"
attr unit b
vector 266 TSN5GPLUS.tsnSwitch.eth[0].phyLayer.phyHeaderChecker outgoingPacketLengths:vector ETV
attr interpolationmode none
attr recordingmode vector
attr source "packetLength(merge(packetPushedOut, packetPulledOut))"
attr title "outgoing packet lengths"
attr unit b
vector 267 TSN5GPLUS.tsnSwitch.eth[0].macLayer.inboundEmitter incomingPacketLengths:vector ETV
attr interpolationmode none
attr recordingmode vector
attr source "packetLength(merge(packetPushedIn, packetPulledIn))"
attr title "incoming packet lengths"
attr unit b
vector 268 TSN5GPLUS.tsnSwitch.eth[0].macLayer.inboundEmitter outgoingPacketLengths:vector ETV
attr interpolationmode none
attr recordingmode vector
attr source "packetLength(merge(packetPushedOut, packetPulledOut))"
attr title "outgoing packet lengths"
attr unit b
vector 269 TSN5GPLUS.tsnSwitch.eth[0].macLayer.fcsChecker incomingPacketLengths:vector ETV
attr interpolationmode none
attr recordingmode vector
attr source "packetLength(merge(packetPushedIn, packetPulledIn))"
attr title "incoming packet lengths"
attr unit b
vector 270 TSN5GPLUS.tsnSwitch.eth[0].macLayer.fcsChecker outgoingPacketLengths:vector ETV
attr interpolationmode none
attr recordingmode vector
attr source "packetLength(merge(packetPushedOut, packetPulledOut))"
attr title "outgoing packet lengths"
attr unit b
vector 271 TSN5GPLUS.tsnSwitch.eth[1].macLayer.queue incomingPacketLengths:vector ETV
attr interpolationmode none
attr recordingmode vector
attr source packetLength(localSignal(packetPushStarted))
attr title "incoming packet lengths"
attr unit b
vector 272 TSN5GPLUS.tsnSwitch.eth[1].macLayer.queue.classifier packetLengths:vector ETV
attr interpolationmode none
attr recordingmode vector
attr source packetLength(packetPushed)
attr title "packet lengths"
attr unit b
vector 273 TSN5GPLUS.tsnSwitch.eth[1].macLayer.queue.queue[0] incomingPacketLengths:vector ETV
attr interpolationmode none
attr moduledisplaypath TSN5GPLUS.tsnSwitch.eth[1].macLayer.queue.besteffort
attr recordingmode vector
attr source packetLength(packetPushStarted)
attr title "incoming packet lengths"
attr unit b
vector 274 TSN5GPLUS.tsnSwitch.eth[1].macLayer.queue.queue[0] queueLength:vector ETV
attr autoWarmupFilter false
attr interpolationmode sample-hold
attr moduledisplaypath TSN5GPLUS.tsnSwitch.eth[1].macLayer.queue.besteffort
attr recordingmode vector
attr source "warmup(atomic(constant0(packetPushEnded) + count(packetPushStarted) - count(packetPulled) - count(packetRemoved) - count(packetDropped)))"
attr title "queue length"
attr unit pk
vector 275 TSN5GPLUS.tsnSwitch.eth[1].macLayer.queue.queue[0] queueBitLength:vector ETV
attr autoWarmupFilter false
attr interpolationmode sample-hold
attr moduledisplaypath TSN5GPLUS.tsnSwitch.eth[1].macLayer.queue.besteffort
attr recordingmode vector
attr source "warmup(atomic(constant0(packetPushEnded) + sum(packetLength(packetPushStarted)) - sum(packetLength(packetPulled)) - sum(packetLength(packetRemoved)) - sum(packetLength(packetDropped))))"
attr title "queue bit length"
attr unit b
vector 276 TSN5GPLUS.tsnSwitch.eth[1].macLayer.queue queueLength:vector ETV
attr autoWarmupFilter false
attr interpolationmode sample-hold
attr recordingmode vector
attr source "warmup(atomic(constant0(localSignal(packetPushEnded)) + count(localSignal(packetPushStarted)) - count(localSignal(packetPulled)) - count(localSignal(packetRemoved)) - count(localSignal(packetDropped))))"
attr title "queue length"
attr unit pk
vector 277 TSN5GPLUS.tsnSwitch.eth[1].macLayer.queue queueBitLength:vector ETV
attr autoWarmupFilter false
attr interpolationmode sample-hold
attr recordingmode vector
attr source "warmup(atomic(constant0(localSignal(packetPushEnded)) + sum(packetLength(localSignal(packetPushStarted))) - sum(packetLength(localSignal(packetPulled))) - sum(packetLength(localSignal(packetRemoved))) - sum(packetLength(localSignal(packetDropped)))))"
attr title "queue bit length"
attr unit b
vector 278 TSN5GPLUS.tsnSwitch.eth[1].macLayer.queue.queue[0] queueingTime:vector ETV
attr interpolationmode none
attr moduledisplaypath TSN5GPLUS.tsnSwitch.eth[1].macLayer.queue.besteffort
attr recordingmode vector
attr source queueingTime(packetPulled)
attr title "queueing times"
attr unit s
vector 279 TSN5GPLUS.tsnSwitch.eth[1].macLayer.queue.queue[0] outgoingPacketLengths:vector ETV
attr interpolationmode none
attr moduledisplaypath TSN5GPLUS.tsnSwitch.eth[1].macLayer.queue.besteffort
attr recordingmode vector
attr source packetLength(packetPulled)
attr title "outgoing packet lengths"
attr unit b
vector 280 TSN5GPLUS.tsnSwitch.eth[1].macLayer.queue.transmissionSelectionAlgorithm[0] incomingPacketLengths:vector ETV
attr interpolationmode none
attr moduledisplaypath TSN5GPLUS.tsnSwitch.eth[1].macLayer.queue.besteffort
attr recordingmode vector
attr source "packetLength(merge(packetPushedIn, packetPulledIn))"
attr title "incoming packet lengths"
attr unit b
vector 281 TSN5GPLUS.tsnSwitch.eth[1].macLayer.queue.transmissionSelectionAlgorithm[0] outgoingPacketLengths:vector ETV
attr interpolationmode none
attr moduledisplaypath TSN5GPLUS.tsnSwitch.eth[1].macLayer.queue.besteffort
attr recordingmode vector
attr source "packetLength(merge(packetPushedOut, packetPulledOut))"
attr title "outgoing packet lengths"
attr unit b
vector 282 TSN5GPLUS.tsnSwitch.eth[1].macLayer.queue.transmissionGate[0] incomingPacketLengths:vector ETV
attr interpolationmode none
attr moduledisplaypath TSN5GPLUS.tsnSwitch.eth[1].macLayer.queue.besteffort
attr recordingmode vector
attr source "packetLength(merge(packetPushedIn, packetPulledIn))"
attr title "incoming packet lengths"
attr unit b
vector 283 TSN5GPLUS.tsnSwitch.eth[1].macLayer.queue.transmissionGate[0] outgoingPacketLengths:vector ETV
attr interpolationmode none
attr moduledisplaypath TSN5GPLUS.tsnSwitch.eth[1].macLayer.queue.besteffort
attr recordingmode vector
attr source "packetLength(merge(packetPushedOut, packetPulledOut))"
attr title "outgoing packet lengths"
attr unit b
vector 284 TSN5GPLUS.tsnSwitch.eth[1].macLayer.queue.transmissionSelection packetLengths:vector ETV
attr interpolationmode none
attr recordingmode vector
attr source packetLength(packetPulled)
attr title "packet lengths"
attr unit b
vector 285 TSN5GPLUS.tsnSwitch.eth[1].macLayer.queue queueingTime:vector ETV
attr interpolationmode none
attr recordingmode vector
attr source queueingTime(localSignal(packetPulled))
attr title "queueing times"
attr unit s
vector 286 TSN5GPLUS.tsnSwitch.eth[1].macLayer.queue outgoingPacketLengths:vector ETV
attr interpolationmode none
attr recordingmode vector
attr source packetLength(localSignal(packetPulled))
attr title "outgoing packet lengths"
attr unit b
vector 287 TSN5GPLUS.tsnSwitch.eth[1].macLayer.server incomingPacketLengths:vector ETV
attr interpolationmode none
attr recordingmode vector
attr source packetLength(packetPulled)
attr title "incoming packet lengths"
attr unit b
vector 288 TSN5GPLUS.tsnSwitch.eth[1].macLayer.server outgoingPacketLengths:vector ETV
attr interpolationmode none
attr recordingmode vector
attr source packetLength(packetPushed)
attr title "outgoing packet lengths"
attr unit b
vector 289 TSN5GPLUS.tsnSwitch.eth[1].macLayer.outboundEmitter incomingPacketLengths:vector ETV
attr interpolationmode none
attr recordingmode vector
attr source "packetLength(merge(packetPushedIn, packetPulledIn))"
attr title "incoming packet lengths"
attr unit b
[...]
83	269	0.00089317	1035
83	289	0.00097445	1035
83	322	0.00105573	1035
83	342	0.00113701	1035
83	356	0.00121829	1035
83	376	0.00129957	1035
83	390	0.00138085	1035
83	404	0.00146213	1035
83	424	0.00154341	1035
83	438	0.00162469	1035
83	452	0.00170597	1035
83	472	0.00178725	1035
83	486	0.00186853	1035
83	500	0.00194981	1035
83	537	0.00206481825	1035
83	563	0.00214609825	1035
83	577	0.00222737825	1035
83	591	0.00230865825	1035
83	611	0.002395110521	1035
83	631	0.002548190913	1035
83	651	0.002873583353	1035
83	684	0.003062586811	1035
83	710	0.003143866811	1035
83	724	0.003225146811	1035
83	744	0.003306426811	1035
83	758	0.003387706811	1035
83	784	0.003728388227	1035
83	798	0.003809668227	1035
83	824	0.004270510501	1035
83	850	0.004653353531	1035
83	870	0.004734633531	1035
83	890	0.004815913531	1035
83	904	0.004897193531	1035
83	936	0.004987877065	1035
83	945	0.005	26
83	966	0.005069157065	1035
83	980	0.005150437065	1035
83	994	0.005231717065	1035
83	1014	0.005343966245	1035
83	1040	0.005441870833	1035
83	1054	0.005523150833	1035
83	1086	0.005621508309	1035
83	1106	0.005702788309	1035
83	1120	0.005784068309	1035
83	1134	0.005865348309	1035
83	1168	0.006000035613	1035
83	1188	0.006081315613	1035
83	1208	0.006162595613	1035
83	1222	0.006243875613	1035
83	1248	0.006381731524	1035
83	1268	0.006463011524	1035
83	1282	0.006544291524	1035
83	1302	0.006835290892	1035
83	1334	0.007487262344	1035
83	1348	0.007568542344	1035
83	1368	0.007711346717	1035
83	1388	0.007824714408	1035
83	1428	0.008054776345	1035
83	1442	0.008136056345	1035
83	1462	0.008217336345	1035
83	1476	0.008298616345	1035
83	1502	0.008383411742	1035
83	1522	0.008464691742	1035
83	1536	0.008545971742	1035
83	1556	0.008737549878	1035
83	1590	0.009151961004	1035
83	1610	0.009233241004	1035
83	1624	0.009314521004	1035
83	1644	0.009481839147	1035
83	1664	0.009718693084	1035
83	1690	0.009824702811	1035
83	1704	0.009905982811	1035
83	1739	0.010003867652	1035
83	1753	0.010085147652	1035
83	1779	0.010205850996	1035
83	1799	0.010287130996	1035
83	1819	0.010368410996	1035
83	1833	0.010449690996	1035
83	1853	0.0106138228	1035
83	1873	0.010936987873	1035
83	1883	0.011	166
83	1918	0.01142227522	1035
83	1944	0.01150355522	1035
83	1970	0.01158483522	1035
83	1996	0.01166611522	1035
83	2010	0.01174739522	1035
83	2030	0.01182867522	1035
83	2050	0.01190995522	1035
83	2064	0.01199123522	1035
83	2076	0.012	166
83	2101	0.01207251522	1035
83	2115	0.01215379522	1035
83	2129	0.01223507522	1035
83	2161	0.01231635522	1035
83	2175	0.01239763522	1035
83	2189	0.01247891522	1035
83	2203	0.01256019522	1035
83	2227	0.013	166
83	2246	0.013033293848	1035
83	2260	0.013114573848	1035
83	2280	0.013352064193	1035
83	2306	0.01354662474	1035
83	2326	0.01362790474	1035
83	2346	0.01370918474	1035
83	2360	0.01379046474	1035
83	2380	0.013932290431	1035
83	2390	0.014	166
83	2419	0.014170950179	1035
83	2445	0.014489812354	1035
83	2465	0.014571092354	1035
83	2485	0.014652372354	1035
83	2499	0.014733652354	1035
83	2512	0.015	166
83	2543	0.015108487454	1035
83	2557	0.015189767454	1035
83	2595	0.015329483485	1035
83	2615	0.015410763485	1035
83	2635	0.015492043485	1035
83	2655	0.015573323485	1035
83	2675	0.015654603485	1035
83	2689	0.015735883485	1035
83	2703	0.015817163485	1035
83	2723	0.015898443485	1035
83	2737	0.015979723485	1035
83	2750	0.016	166
83	2777	0.0162103525	1035
83	2797	0.016307703841	1035
83	2817	0.016405767044	1035
83	2837	0.016530599509	1035
83	2863	0.016690152052	1035
83	2877	0.016771432052	1035
83	2890	0.017	166
83	2917	0.01710134429	1035
83	2937	0.017629885462	1035
83	2957	0.017818489767	1035
83	2984	0.018	166
83	3005	0.018034334372	1035
83	3019	0.018115614372	1035
83	3039	0.018205587828	1035
83	3059	0.0183789812	1035
83	3079	0.018511014208	1035
83	3105	0.018600774688	1035
83	3125	0.018682054688	1035
83	3145	0.018763334688	1035
83	3159	0.018844614688	1035
83	3180	0.019	166
83	3201	0.019030235939	1035
83	3221	0.019370521186	1035
83	3247	0.01967182809	1035
83	3267	0.01975310809	1035
83	3287	0.01983438809	1035
83	3301	0.01991566809	1035
83	3314	0.02	166
83	3345	0.020102520215	1035
83	3365	0.020274931137	1035
83	3385	0.020725442166	1035
83	3411	0.020822905043	1035
83	3437	0.020904185043	1035
83	3451	0.020985465043	1035
83	3471	0.021	166
83	3492	0.021066745043	1035
83	3526	0.021285049229	1035
83	3557	0.021366329229	1035
83	3582	0.021447609229	1035
83	3605	0.021528889229	1035
83	3635	0.021713047005	1035
83	3655	0.021850495734	1035
83	3678	0.022	166
83	3700	0.022056824205	1035
83	3720	0.022571908579	1035
83	3740	0.022693843628	1035
83	3766	0.022926378961	1035
83	3789	0.023	166
83	3813	0.023007658961	1035
83	3833	0.023088938961	1035
83	3847	0.023170218961	1035
83	3867	0.023326947582	1035
83	3887	0.023541674872	1035
83	3913	0.023893570753	1035
83	3927	0.023974850753	1035
83	3942	0.024	166
83	3971	0.024091008859	1035
83	3991	0.024747917722	1035
83	4023	0.024852178016	1035
83	4037	0.024933458016	1035
83	4052	0.025	166
83	4073	0.025014738016	1035
83	4099	0.025131916442	1035
83	4113	0.025213196442	1035
83	4139	0.025328672066	1035
83	4159	0.025409952066	1035
83	4173	0.025491232066	1035
83	4199	0.025596782821	1035
83	4213	0.025678062821	1035
83	4233	0.025851572037	1035
83	4249	0.026	166
83	4280	0.026257575317	1035
83	4306	0.026713023771	1035
83	4326	0.026794303771	1035
83	4340	0.026875583771	1035
83	4360	0.026973719918	1035
83	4385	0.027	166
84	300	0.001	0
84	515	0.002	0
84	660	0.003	1
84	801	0.004	0
84	939	0.005	0
84	1152	0.006	0
84	1307	0.007	0
84	1397	0.008	0
84	1559	0.009	6
84	1719	0.01	6
84	1876	0.011	6
84	2069	0.012	6
84	2220	0.013	6
84	2383	0.014	6
84	2502	0.015	6
84	2740	0.016	6
84	2880	0.017	6
84	2974	0.018	6
84	3170	0.019	6
84	3304	0.02	6
84	3454	0.021	6
84	3664	0.022	6
84	3775	0.023	6
84	3932	0.024	6
84	4042	0.025	6
84	4236	0.026	6
84	4363	0.027	6
85	300	0.001	0
85	515	0.002	0
85	660	0.003	0
85	801	0.004	0
85	939	0.005	0
85	1152	0.006	0
85	1307	0.007	0
85	1397	0.008	0
85	1559	0.009	0
85	1719	0.01	0
85	1876	0.011	0
85	2069	0.012	0
85	2220	0.013	0
85	2383	0.014	0
85	2502	0.015	0
85	2740	0.016	0
85	2880	0.017	0
85	2974	0.018	0
85	3170	0.019	0
85	3304	0.02	0
85	3454	0.021	0
85	3664	0.022	6
85	3775	0.023	2
85	3932	0.024	0
85	4042	0.025	0
85	4236	0.026	0
85	4363	0.027	0
86	302	0.001	1
86	947	0.005	28
86	1885	0.011	168
86	2078	0.012	168
86	2229	0.013	168
86	2392	0.014	168
86	2514	0.015	168
86	2752	0.016	168
86	2892	0.017	168
86	2986	0.018	168
86	3182	0.019	168
86	3316	0.02	168
86	3473	0.021	168
86	3681	0.022	168
86	3792	0.023	168
86	3944	0.024	168
86	4054	0.025	168
86	4242	0.026	1
86	4251	0.026	168
86	4376	0.027	1
87	519	0.002	-4.2294798010466
87	1401	0.008	-4.2294798010466
87	2394	0.014	-4.2294798010466
87	3318	0.02	-4.2294798010466
87	4253	0.026	-4.2294798010466
88	519	0.002	18.966607188411
88	1401	0.008	18.966607188411
88	2394	0.014	18.966607188411
88	3318	0.02	18.966607188411
88	4253	0.026	18.966607188411
89	520	0.002	1
89	522	0.002	1
89	524	0.002	1
89	1157	0.006	28
89	1402	0.008	1
89	1404	0.008	1
89	2083	0.012	168
89	2234	0.013	168
89	2395	0.014	1
89	2397	0.014	1
89	2401	0.014	168
89	2519	0.015	168
89	2759	0.016	168
89	2899	0.017	168
89	2993	0.018	168
89	3189	0.019	168
89	3319	0.02	1
89	3321	0.02	1
89	3327	0.02	168
89	3480	0.021	168
89	3688	0.022	168
89	3801	0.023	168
89	3953	0.024	168
89	4061	0.025	168
89	4254	0.026	1
89	4256	0.026	1
89	4262	0.026	168
90	521	0.002	6.1192095969529
90	1403	0.008	6.1192095969529
90	2396	0.014	6.1192095969529
90	3320	0.02	6.1192095969529
90	4255	0.026	6.1192095969529
91	521	0.002	32.193143107252
91	1403	0.008	32.193143107252
91	2396	0.014	32.193143107252
91	3320	0.02	32.193143107252
91	4255	0.026	32.193143107252
92	524	0.002	1
92	660	0.003	1
92	1559	0.009	1
92	1559	0.009	1
92	1719	0.01	1
92	1876	0.011	1
92	2069	0.012	1
92	2220	0.013	1
92	2383	0.014	1
92	2502	0.015	1
92	2502	0.015	1
92	2740	0.016	1
92	2740	0.016	1
92	2880	0.017	1
92	2880	0.017	1
92	2974	0.018	1
92	2974	0.018	1
92	3170	0.019	1
92	3170	0.019	1
92	3304	0.02	1
92	3304	0.02	1
92	3454	0.021	1
92	3454	0.021	1
92	3664	0.022	1
92	3664	0.022	1
92	3679	0.022	846
92	3775	0.023	1
92	3775	0.023	1
92	3790	0.023	195
92	3932	0.024	1
92	3932	0.024	1
92	4042	0.025	1
92	4042	0.025	1
92	4236	0.026	1
92	4236	0.026	1
92	4363	0.027	1
92	4363	0.027	1
93	666	0.003	1
93	806	0.004	1
93	1725	0.01	1
93	1727	0.01	1
93	1888	0.011	1
93	2081	0.012	1
93	2232	0.013	1
93	2399	0.014	1
93	2517	0.015	1
93	2755	0.016	1
93	2757	0.016	1
93	2895	0.017	1
93	2897	0.017	1
93	2989	0.018	1
93	2991	0.018	1
93	3185	0.019	1
93	3187	0.019	1
93	3323	0.02	1
93	3325	0.02	1
93	3476	0.021	1
93	3478	0.021	1
93	3684	0.022	1
93	3686	0.022	1
93	3795	0.023	1
93	3797	0.023	1
93	3799	0.023	846
93	3947	0.024	1
93	3949	0.024	1
93	3951	0.024	195
93	4057	0.025	1
93	4059	0.025	1
93	4258	0.026	1
93	4260	0.026	1
94	941	0.005	1
94	1879	0.011	1
94	2072	0.012	1
94	2223	0.013	1
94	2386	0.014	1
94	2508	0.015	1
94	2746	0.016	1
94	2886	0.017	1
94	2980	0.018	1
94	3176	0.019	1
94	3310	0.02	1
94	3467	0.021	1
94	3674	0.022	1
94	3785	0.023	1
94	3938	0.024	1
94	4048	0.025	1
94	4242	0.026	844
94	4242	0.026	1
94	4376	0.027	193
94	4376	0.027	1
95	943	0.005	0
95	1881	0.011	0
95	2074	0.012	0
95	2225	0.013	0
95	2388	0.014	0
95	2510	0.015	0
95	2748	0.016	0
95	2888	0.017	0
95	2982	0.018	0
95	3178	0.019	0
95	3312	0.02	0
95	3458	0.021	0
95	3469	0.021	0
95	3676	0.022	0
95	3787	0.023	0
95	3940	0.024	0
95	4050	0.025	0
95	4247	0.026	0
95	4367	0.027	0
95	4381	0.027	0
96	943	0.005	26
96	1881	0.011	166
96	2074	0.012	166
96	2225	0.013	166
96	2388	0.014	166
96	2510	0.015	166
96	2748	0.016	166
96	2888	0.017	166
96	2982	0.018	166
96	3178	0.019	166
96	3312	0.02	166
96	3469	0.021	166
96	3676	0.022	166
96	3787	0.023	166
96	3940	0.024	166
96	4050	0.025	166
96	4247	0.026	166
96	4381	0.027	166
97	948	0.005	4
97	1886	0.011	4
97	2079	0.012	4
97	2230	0.013	4
97	2393	0.014	4
97	2515	0.015	4
97	2753	0.016	4
97	2893	0.017	4
97	2987	0.018	4
97	3183	0.019	4
97	3317	0.02	4
97	3474	0.021	4
97	3682	0.022	4
97	3793	0.023	4
97	3945	0.024	4
97	4055	0.025	4
97	4252	0.026	4
98	1156	0.006	9.1696856048414
98	2082	0.012	6.1192095969529
98	2233	0.013	6.1192095969529
98	2400	0.014	6.1192095969529
98	2518	0.015	6.1192095969529
98	2758	0.016	6.1192095969529
98	2898	0.017	6.1192095969529
98	2992	0.018	6.1192095969529
98	3188	0.019	6.1192095969529
98	3326	0.02	6.1192095969529
98	3479	0.021	6.1192095969529
98	3687	0.022	6.1192095969529
98	3800	0.023	6.1192095969529
98	3952	0.024	6.1192095969529
98	4060	0.025	6.1192095969529
98	4261	0.026	6.1192095969529
99	1559	0.009	0.004
99	2502	0.015	0.004
99	2740	0.016	0.004
99	2880	0.017	0.004
99	2974	0.018	0.004
99	3170	0.019	0.004
99	3304	0.02	0.004
99	3454	0.021	0.004
99	3664	0.022	0.004
99	3775	0.023	0.004
99	3932	0.024	0.004
99	4042	0.025	0.004
99	4236	0.026	0.004
99	4363	0.027	0.004
100	1559	0.009	26
100	2502	0.015	166
100	2740	0.016	166
100	2880	0.017	166
100	2974	0.018	166
100	3170	0.019	166
100	3304	0.02	166
100	3454	0.021	166
100	3664	0.022	166
100	3664	0.022	1
100	3775	0.023	166
100	3775	0.023	1
100	3932	0.024	166
100	4042	0.025	166
100	4236	0.026	166
100	4363	0.027	166
101	1563	0.009	26
101	2506	0.015	166
101	2744	0.016	166
101	2884	0.017	166
101	2978	0.018	166
101	3174	0.019	166
101	3308	0.02	166
101	3458	0.021	166
101	3669	0.022	166
101	3780	0.023	166
101	3936	0.024	166
101	4046	0.025	166
101	4240	0.026	166
101	4367	0.027	166
102	1563	0.009	0
102	2506	0.015	0
102	2744	0.016	0
102	2884	0.017	0
102	2978	0.018	0
102	3174	0.019	0
102	3308	0.02	0
102	3458	0.021	0
102	3669	0.022	0
102	3780	0.023	0
102	3936	0.024	0
102	4046	0.025	0
102	4240	0.026	0
102	4367	0.027	0
103	1563	0.009	0.004
103	2506	0.015	0.004
103	2744	0.016	0.004
103	2884	0.017	0.004
103	2978	0.018	0.004
103	3174	0.019	0.004
103	3308	0.02	0.004
103	3458	0.021	0.004
103	3669	0.022	0.004
103	3780	0.023	0.004
103	3936	0.024	0.004
103	4046	0.025	0.004
103	4240	0.026	0.004
103	4367	0.027	0.004
104	1563	0.009	0
104	2506	0.015	0
104	2744	0.016	0
104	2884	0.017	0
104	2978	0.018	0
104	3174	0.019	0
104	3308	0.02	0
104	3458	0.021	0
104	3669	0.022	0
104	3780	0.023	0
104	3936	0.024	0
104	4046	0.025	0
104	4240	0.026	0
104	4367	0.027	0
105	1725	0.01	0
105	2755	0.016	0
105	2895	0.017	0
105	2989	0.018	0
105	3185	0.019	0
105	3323	0.02	0
105	3476	0.021	0
105	3684	0.022	0
105	3795	0.023	0
105	3947	0.024	0
105	4057	0.025	0
105	4258	0.026	0
106	1725	0.01	0
106	2755	0.016	0
106	2895	0.017	0
106	2989	0.018	0
106	3185	0.019	0
106	3323	0.02	0
106	3476	0.021	0
106	3684	0.022	0
106	3795	0.023	0
106	3947	0.024	0
106	4057	0.025	0
106	4258	0.026	0
107	1725	0.01	1
107	2755	0.016	1
107	2895	0.017	1
107	2989	0.018	1
107	3185	0.019	1
107	3323	0.02	1
107	3476	0.021	1
107	3684	0.022	1
107	3795	0.023	1
107	3947	0.024	1
107	4057	0.025	1
107	4258	0.026	1
108	2037	0.011874913238	65617321.523373
109	2037	0.011874913238	65617321.523373
110	2037	0.011874913238	65617321.523373
111	2037	0.011874913238	65617321.523373
112	2037	0.011874913238	65617321.523373
113	2037	0.011874913238	65886797.176446
114	2037	0.011874913238	65886797.176446
115	2037	0.011874913238	66829961.962203
116	2037	0.011874913238	66829961.962203
117	2037	0.011874913238	66829961.962203
118	2037	0.011874913238	66829961.962203
119	2037	0.011874913238	67099437.615276
120	2037	0.011874913238	67099437.615276
121	2104	0.01215374522	65.425758530094
122	2117	0.01215470522	65554860.079116
123	2117	0.01215470522	65554860.079116
124	2117	0.01215470522	65554860.079116
125	2117	0.01215470522	65554860.079116
126	2117	0.01215470522	65554860.079116
127	2117	0.01215470522	65554860.079116
128	2117	0.01215470522	66081405.139992
129	2117	0.01215470522	66081405.139992
130	2117	0.01215470522	66081405.139992
131	2118	0.01223502522	65647596.597271
132	3458	0.021	49190.476190476
132	4367	0.027	76518.518518519
133	3458	0.021	0
133	4367	0.027	0
133	4380	0.027	0
134	3458	0.021	0.02091963
134	4367	0.027	0.02683835
135	3458	0.021	1033
135	4367	0.027	1033
136	3459	0.021	1033
136	4368	0.027	1033
137	3459	0.021	1032
137	4368	0.027	1032
138	3463	0.021	1048
138	4372	0.027	1048
139	3465	0.021	8544
139	4374	0.027	8544
140	3465	0.021	0
140	4374	0.027	0
141	3465	0.021	8544
141	4374	0.027	8544
142	3465	0.021	1068
142	4374	0.027	1068
143	3465	0.021	1075
143	4374	0.027	1075
144	3465	0.021	0
144	4374	0.027	0
145	3465	0.021	0
145	4374	0.027	0
146	3496	0.02108605	1075
147	3496	0.02108605	1068
148	3498	0.02108605	1048
149	3513	0.02124674	0.00016064
150	3513	0.02124674	8032
151	3513	0.02124674	8032
152	3513	0.02124674	8032
153	3513	0.02124674	7968
154	3513	0.02124674	7968
155	3513	0.02124674	7968
156	3513	0.02124674	7968
157	3513	0.02124674	7968
158	3513	0.02124674	7968
158	3561	0.02140748	7968
159	3513	0.02124674	7936
159	3561	0.02140748	7936
160	3513	0.02124674	7936
160	3561	0.02140748	7936
161	3513	0.02124674	7824
161	3561	0.02140748	7824
162	3513	0.02124674	7824
162	3561	0.02140748	7824
163	3513	0.02124674	7792
163	3561	0.02140748	7792
164	3513	0.02124674	7792
164	3561	0.02140748	7792
165	3513	0.02124674	7792
165	3561	0.02140748	7792
166	3513	0.02124674	7792
166	3561	0.02140748	7792
167	3513	0.02124674	7792
167	3561	0.02140748	7792
168	3513	0.02124674	7792
168	3561	0.02140748	7792
169	3513	0.02124674	7792
169	3561	0.02140748	7792
170	3513	0.02124674	7792
170	3561	0.02140748	7792
171	3513	0.02124674	7792
171	3561	0.02140748	7792
172	3513	0.02124674	7792
172	3561	0.02140748	7792
173	3513	0.02124674	7792
173	3561	0.02140748	7792
174	3513	0.02124674	7792
174	3561	0.02140748	7792
175	3513	0.02124674	7792
175	3561	0.02140748	7792
176	3513	0.02124674	7792
176	3561	0.02140748	7792
177	3513	0.02124674	7792
177	3561	0.02140748	7792
178	3513	0.02124674	7792
178	3561	0.02140748	7792
179	3513	0.02124674	7792
179	3561	0.02140748	7792
180	3513	0.02124674	7792
180	3561	0.02140748	7792
181	3513	0.02124674	7792
181	3561	0.02140748	7792
182	3513	0.02124674	7792
182	3561	0.02140748	7792
183	3513	0.02124674	7792
183	3561	0.02140748	7792
184	3513	0.02124674	7824
184	3561	0.02140748	7824
185	3513	0.02124674	7824
185	3561	0.02140748	7824
186	3513	0.02124674	7936
186	3561	0.02140748	7936
187	3513	0.02124674	7936
187	3561	0.02140748	7936
188	3513	0.02124674	7936
188	3561	0.02140748	7936
189	3513	0.02124674	7936
189	3561	0.02140748	7936
190	3513	0.02124674	7968
190	3561	0.02140748	7968
191	3513	0.02124674	7968
192	3513	0.02124674	7968
193	3513	0.02124674	7968
194	3513	0.02124674	1
194	3514	0.02124674	0
195	3513	0.02124674	7968
195	3514	0.02124674	0
196	3513	0.02124674	1
196	3514	0.02124674	0
197	3513	0.02124674	7968
197	3514	0.02124674	0
198	3514	0.02124674	0
199	3514	0.02124674	7968
200	3514	0.02124674	7968
201	3514	0.02124674	7968
202	3514	0.02124674	7968
203	3514	0.02124674	7968
204	3514	0.02124674	7968
205	3514	0.02124674	0
206	3514	0.02124674	7968
207	3514	0.02124674	7968
208	3514	0.02124674	7968
209	3514	0.02124674	7968
210	3514	0.02124674	7968
211	3514	0.02124674	7968
212	3514	0.02124674	8032
213	3514	0.02124674	8032
214	3514	0.02124674	8032
215	3535	0.02132706	8.032e-05
216	3536	0.02132711	8.032e-05
217	3536	0.02132711	8032
218	3536	0.02132711	8032
219	3536	0.02132711	8032
220	3536	0.02132711	7968
221	3536	0.02132711	7968
222	3536	0.02132711	7968
223	3536	0.02132711	7968
224	3536	0.02132711	7968
225	3536	0.02132711	7968
226	3536	0.02132711	7936
227	3536	0.02132711	7936
228	3536	0.02132711	7824
229	3536	0.02132711	7824
230	3536	0.02132711	7792
231	3536	0.02132711	7792
232	3536	0.02132711	7792
233	3538	0.02132711	954
234	3539	0.02132711	946
235	3540	0.02132711	954
236	3542	0.02132711	7792
237	3542	0.02132711	7792
238	3542	0.02132711	7792
239	3542	0.02132711	7792
240	3542	0.02132711	7792
241	3542	0.02132711	7824
242	3542	0.02132711	7824
243	3542	0.02132711	7936
244	3542	0.02132711	7936
245	3542	0.02132711	7936
246	3542	0.02132711	7936
247	3542	0.02132711	7968
248	3542	0.02132711	7968
249	3542	0.02132711	1
249	3543	0.02132711	0
250	3542	0.02132711	7968
250	3543	0.02132711	0
251	3543	0.02132711	0
252	3543	0.02132711	7968
253	3543	0.02132711	7968
254	3543	0.02132711	7968
255	3543	0.02132711	7968
256	3543	0.02132711	7968
257	3543	0.02132711	7968
258	3543	0.02132711	8032
259	3543	0.02132711	8032
260	3543	0.02132711	8032
261	3560	0.02140743	8.032e-05
262	3561	0.02140748	8.032e-05
263	3561	0.02140748	8032
264	3561	0.02140748	8032
265	3561	0.02140748	8032
266	3561	0.02140748	7968
267	3561	0.02140748	7968
268	3561	0.02140748	7968
269	3561	0.02140748	7968
270	3561	0.02140748	7968
271	3561	0.02140748	7968
272	3561	0.02140748	7968
273	3561	0.02140748	7968
274	3561	0.02140748	1
274	3562	0.02140748	0
275	3561	0.02140748	7968
275	3562	0.02140748	0
276	3561	0.02140748	1
276	3562	0.02140748	0
277	3561	0.02140748	7968
277	3562	0.02140748	0
278	3562	0.02140748	0
279	3562	0.02140748	7968
280	3562	0.02140748	7968
281	3562	0.02140748	7968
282	3562	0.02140748	7968
283	3562	0.02140748	7968
284	3562	0.02140748	7968
285	3562	0.02140748	0
286	3562	0.02140748	7968
287	3562	0.02140748	7968
288	3562	0.02140748	7968
289	3562	0.02140748	7968
290	3562	0.02140748	7968
291	3562	0.02140748	7968
292	3562	0.02140748	8032
293	3562	0.02140748	8032
294	3562	0.02140748	8032
295	3565	0.021444425226	35291223.337729
296	3585	0.0214878	8.032e-05
297	3589	0.02148785	1048
298	3591	0.02148785	8544
299	3591	0.02148785	0
300	3591	0.02148785	8544
301	3591	0.02148785	1068
302	3591	0.02148785	1075
303	3591	0.02148785	0
304	3591	0.02148785	0
305	3609	0.0215739	1075
306	3609	0.0215739	1068
307	3611	0.0215739	1048
308	3614	0.0215739	1032
309	3614	0.0215739	1033
310	3615	0.0215739	1033
311	3617	0.0215739	1035
311	3672	0.022	844
311	3783	0.023	193
312	3670	0.022	0
312	3781	0.023	0
313	3670	0.022	844
313	3781	0.023	193
314	3798	0.023	14
314	3950	0.024	14
315	3798	0.023	775.61977619089
315	3950	0.024	775.61977619089
316	3798	0.023	32.193143107252
316	3950	0.024	32.291604857475
317	4242	0.026	0.004
317	4376	0.027	0.004
318	4246	0.026	844
318	4380	0.027	193
319	4246	0.026	0
319	4380	0.027	0
320	4246	0.026	0.004
320	4380	0.027	0.004
321	4246	0.026	0
321	4380	0.027	0
322	4380	0.027	38259.259259259
323	4380	0.027	0
324	4380	0.027	0.0054261
325	4380	0.027	1033
326	4382	0.027	1033
327	4382	0.027	1032
328	4387	0.027	1012

