version 3
run General-0-20240227-09:34:46-3128
attr configname General
attr datetime 20240227-09:34:46
attr datetimef 20240227-093446
attr experiment General
attr inifile TSN5GPLUS.ini
attr iterationvars ""
attr iterationvarsd ""
attr iterationvarsf ""
attr measurement ""
attr network TSN5GPLUS
attr processid 3128
attr repetition 0
attr replication #0
attr resultdir results
attr runnumber 0
attr seedset 0
config image-path ../inet4.5/images:../simu5G/images
config network TSN5GPLUS
config *.*.hasTimeSynchronization true
config *.tsnClock.gptp.masterPorts "[\"eth0\"]"
config *.tsnSwitch.gptp.masterPorts "[\"eth1\", \"eth2\"]"
config **.referenceClock "\"tsnClock.clock\""
config *.visualizer.typename IntegratedMultiCanvasVisualizer
config *.visualizer.infoVisualizer[*].displayInfos true
config *.visualizer.dataLinkVisualizer[0].displayLinks true
config *.visualizer.dataLinkVisualizer[0].activityLevel "\"protocol\""
config *.visualizer.dataLinkVisualizer[0].packetFilter "\"GptpSync\""
config *.visualizer.dataLinkVisualizer[0].lineColor "\"blue2\""
config *.visualizer.numInfoVisualizers 4
config *.visualizer.infoVisualizer[0].modules "\"*.tsnClock.clock\""
config *.tsnClock.clock.displayStringTextFormat "\"time: %T\""
config *.visualizer.infoVisualizer[1].modules "\"*.tsnSwitch.clock\""
config *.visualizer.infoVisualizer[1].placementHint "\"topLeft\""
config *.visualizer.infoVisualizer[2].modules "\"*.tsnClient.clock\""
config *.visualizer.infoVisualizer[2].placementHint "\"bottom\""
config *.visualizer.infoVisualizer[3].modules "\"*.tsnServer.clock\""
config *.visualizer.infoVisualizer[3].placementHint "\"bottom\""
config *.tsnClient.clock.displayStringTextFormat "\"diff: %d\""
config *.tsnServer.clock.displayStringTextFormat "\"diff: %d\""
config *.tsnSwitch.clock.displayStringTextFormat "\"diff: %d\""
config *.*.macCellId 1
config *.*.masterId 1
config *.*.nrMacCellId 1
config *.*.nrMasterId 1
config *.tsnClient*.numApps 2
config *.tsnClient*.app[*].typename UdpApp
config *.tsnClient*.app[0].display-name besteffort
config *.tsnClient*.app[1].display-name video
config *.tsnClient*.app[*].io.destAddress "\"tsnServer\""
config *.tsnClient*.app[0].io.destPort 1000
config *.tsnClient*.app[1].io.destPort 1001
config *.tsnClient*.app[0].io.localPort 1000
config *.tsnClient*.app[1].io.localPort 1001
config *.tsnClient*.app[*].source.packetLength "1000B - 54B"
config *.tsnClient*.app[0].source.productionInterval exponential(200us)
config *.tsnClient*.app[1].source.productionInterval exponential(400us)
config *.tsnServer.numApps 2
config *.tsnServer.app[*].typename UdpEchoApp
config *.tsnServer.app[0].display-name besteffort
config *.tsnServer.app[1].display-name video
config *.tsnServer.app[0].localPort 1000
config *.tsnServer.app[1].localPort 1001
config *.tsnServer.ipv4.routingTable.routingFile "\"Server.mrt\""
config *.*.hasOutgoingStreams true
config *.*.hasIncomingStreams true
config *.tsnClient*.bridging.streamIdentifier.identifier.mapping "[{stream: \"besteffort\", packetFilter: expr(udp.destPort == 1000)},\n\t\t\t\t\t\t\t\t\t\t\t\t\t\t\t{stream: \"video\", packetFilter: expr(udp.destPort == 1001)}]"
config *.tsnClient*.bridging.streamCoder.encoder.mapping "[{stream: \"besteffort\", pcp: 0},\n\t\t\t\t\t\t\t\t\t\t\t\t\t{stream: \"video\", pcp: 4}]"
config *.tsnServer.bridging.streamIdentifier.identifier.mapping "[{stream: \"besteffort\", packetFilter: expr(udp.destPort == 1000)},\n\t\t\t\t\t\t\t\t\t\t\t\t\t\t\t{stream: \"video\", packetFilter: expr(udp.destPort == 1001)}]"
config *.tsnServer.bridging.streamCoder.encoder.mapping "[{stream: \"besteffort\", pcp: 0},\n\t\t\t\t\t\t\t\t\t\t\t\t\t{stream: \"video\", pcp: 4}]"
config *.tsnSwitch.bridging.streamCoder.decoder.mapping "[{pcp: 0, stream: \"besteffort\"},\n                                                 {pcp: 4, stream: \"video\"}]"
config *.tsnSwitch.bridging.streamCoder.encoder.mapping "[{stream: \"besteffort\", pcp: 0},\n\t\t\t\t\t\t\t\t\t\t\t\t\t{stream: \"video\", pcp: 4}]"
config *.tsnSwitch.hasIngressTrafficFiltering true
config *.tsnSwitch.bridging.streamFilter.ingress.typename SimpleIeee8021qFilter
config *.tsnSwitch.bridging.streamFilter.ingress.numStreams 2
config *.tsnSwitch.bridging.streamFilter.ingress.classifier.mapping "{besteffort: 0,video: 1}"
config *.tsnSwitch.bridging.streamFilter.ingress.*[0].display-name besteffort
config *.tsnSwitch.bridging.streamFilter.ingress.*[1].display-name video
config *.tsnSwitch.bridging.streamFilter.ingress.meter[*].typename EligibilityTimeMeter
config *.tsnSwitch.bridging.streamFilter.ingress.meter[*].committedInformationRate 20Mbps
config *.tsnSwitch.bridging.streamFilter.ingress.meter[*].committedBurstSize 10kB
config *.tsnSwitch.bridging.streamFilter.ingress.filter[*].typename EligibilityTimeFilter
config *.tsnSwitch.hasEgressTrafficShaping true
config *.tsnSwitch.bridging.directionReverser.reverser.excludeEncapsulationProtocols "[\"ieee8021qctag\"]"
config *.tsnSwitch.eth[*].macLayer.queue.numTrafficClasses 2
config *.tsnSwitch.eth[*].macLayer.queue.*[0].display-name besteffort
config *.tsnSwitch.eth[*].macLayer.queue.*[1].display-name video
config *.tsnSwitch.eth[*].macLayer.queue.queue[0].typename EligibilityTimeQueue
config *.tsnSwitch.eth[*].macLayer.queue.queue[1].typename EligibilityTimeQueue
config *.tsnSwitch.eth[*].macLayer.queue.transmissionSelectionAlgorithm[0].typename Ieee8021qAsynchronousShaper
config *.tsnSwitch.eth[*].macLayer.queue.transmissionSelectionAlgorithm[1].typename Ieee8021qAsynchronousShaper

vector 0 TSN5GPLUS.tsnServer.eth[0].phyLayer.interFrameGapInserter interpacketGap:vector ETV
attr interpolationmode sample-hold
attr recordingmode vector
attr source "count(interpacketGapStarted) - count(interpacketGapEnded)"
attr title "interpacket gap state"
attr type int
vector 1 TSN5GPLUS.tsnServer.eth[0].phyLayer.transmitter transmitting:vector ETV
attr interpolationmode sample-hold
attr recordingmode vector
attr source "count(transmissionStarted) - count(transmissionEnded)"
attr title "transmitting state"
attr type int
vector 2 TSN5GPLUS.tsnServer.udp passedUpPk:vector(count) ETV
attr interpolationmode none
attr recordingmode vector(count)
attr source packetSentToUpper
attr title "packets passed up, count"
vector 3 TSN5GPLUS.tsnServer.udp droppedPkWrongPort:vector(count) ETV
attr interpolationmode none
attr recordingmode vector(count)
attr source packetDropReasonIsNoPortFound(packetDropped)
attr title "packets dropped (wrong port), count"
vector 4 TSN5GPLUS.tsnServer.udp droppedPkBadChecksum:vector(count) ETV
attr interpolationmode none
attr recordingmode vector(count)
attr source packetDropReasonIsIncorrectlyReceived(packetDropped)
attr title "packets dropped (checksum error), count"
vector 5 TSN5GPLUS.tsnSwitch.eth[0].phyLayer.interFrameGapInserter interpacketGap:vector ETV
attr interpolationmode sample-hold
attr recordingmode vector
attr source "count(interpacketGapStarted) - count(interpacketGapEnded)"
attr title "interpacket gap state"
attr type int
vector 6 TSN5GPLUS.tsnSwitch.eth[0].phyLayer.transmitter transmitting:vector ETV
attr interpolationmode sample-hold
attr recordingmode vector
attr source "count(transmissionStarted) - count(transmissionEnded)"
attr title "transmitting state"
attr type int
vector 7 TSN5GPLUS.tsnSwitch.eth[1].phyLayer.interFrameGapInserter interpacketGap:vector ETV
attr interpolationmode sample-hold
attr recordingmode vector
attr source "count(interpacketGapStarted) - count(interpacketGapEnded)"
attr title "interpacket gap state"
attr type int
vector 8 TSN5GPLUS.tsnSwitch.eth[1].phyLayer.transmitter transmitting:vector ETV
attr interpolationmode sample-hold
attr recordingmode vector
attr source "count(transmissionStarted) - count(transmissionEnded)"
attr title "transmitting state"
attr type int
vector 9 TSN5GPLUS.tsnSwitch.eth[2].phyLayer.interFrameGapInserter interpacketGap:vector ETV
attr interpolationmode sample-hold
attr recordingmode vector
attr source "count(interpacketGapStarted) - count(interpacketGapEnded)"
attr title "interpacket gap state"
attr type int
vector 10 TSN5GPLUS.tsnSwitch.eth[2].phyLayer.transmitter transmitting:vector ETV
attr interpolationmode sample-hold
attr recordingmode vector
attr source "count(transmissionStarted) - count(transmissionEnded)"
attr title "transmitting state"
attr type int
vector 11 TSN5GPLUS.tsnClock.eth[0].phyLayer.interFrameGapInserter interpacketGap:vector ETV
attr interpolationmode sample-hold
attr recordingmode vector
attr source "count(interpacketGapStarted) - count(interpacketGapEnded)"
attr title "interpacket gap state"
attr type int
vector 12 TSN5GPLUS.tsnClock.eth[0].phyLayer.transmitter transmitting:vector ETV
attr interpolationmode sample-hold
attr recordingmode vector
attr source "count(transmissionStarted) - count(transmissionEnded)"
attr title "transmitting state"
attr type int
vector 13 TSN5GPLUS.tsnClock.udp passedUpPk:vector(count) ETV
attr interpolationmode none
attr recordingmode vector(count)
attr source packetSentToUpper
attr title "packets passed up, count"
vector 14 TSN5GPLUS.tsnClock.udp droppedPkWrongPort:vector(count) ETV
attr interpolationmode none
attr recordingmode vector(count)
attr source packetDropReasonIsNoPortFound(packetDropped)
attr title "packets dropped (wrong port), count"
vector 15 TSN5GPLUS.tsnClock.udp droppedPkBadChecksum:vector(count) ETV
attr interpolationmode none
attr recordingmode vector(count)
attr source packetDropReasonIsIncorrectlyReceived(packetDropped)
attr title "packets dropped (checksum error), count"
vector 16 TSN5GPLUS.upf.ppp[0].ppp transmissionState:vector ETV
attr interpolationmode sample-hold
attr recordingmode vector
attr source transmissionStateChanged
attr title "tx state"
vector 17 TSN5GPLUS.upf.udp passedUpPk:vector(count) ETV
attr interpolationmode none
attr recordingmode vector(count)
attr source packetSentToUpper
attr title "packets passed up, count"
vector 18 TSN5GPLUS.upf.udp droppedPkWrongPort:vector(count) ETV
attr interpolationmode none
attr recordingmode vector(count)
attr source packetDropReasonIsNoPortFound(packetDropped)
attr title "packets dropped (wrong port), count"
vector 19 TSN5GPLUS.upf.udp droppedPkBadChecksum:vector(count) ETV
attr interpolationmode none
attr recordingmode vector(count)
attr source packetDropReasonIsIncorrectlyReceived(packetDropped)
attr title "packets dropped (checksum error), count"
vector 20 TSN5GPLUS.gnb.pppIf.ppp transmissionState:vector ETV
attr interpolationmode sample-hold
attr recordingmode vector
attr source transmissionStateChanged
attr title "tx state"
vector 21 TSN5GPLUS.gnb.pppMEHostIf.ppp transmissionState:vector ETV
attr interpolationmode sample-hold
attr recordingmode vector
attr source transmissionStateChanged
attr title "tx state"
vector 22 TSN5GPLUS.gnb.udp passedUpPk:vector(count) ETV
attr interpolationmode none
attr recordingmode vector(count)
attr source packetSentToUpper
attr title "packets passed up, count"
vector 23 TSN5GPLUS.gnb.udp droppedPkWrongPort:vector(count) ETV
attr interpolationmode none
attr recordingmode vector(count)
attr source packetDropReasonIsNoPortFound(packetDropped)
attr title "packets dropped (wrong port), count"
vector 24 TSN5GPLUS.gnb.udp droppedPkBadChecksum:vector(count) ETV
attr interpolationmode none
attr recordingmode vector(count)
attr source packetDropReasonIsIncorrectlyReceived(packetDropped)
attr title "packets dropped (checksum error), count"
vector 25 TSN5GPLUS.tsnClient.eth[0].phyLayer.interFrameGapInserter interpacketGap:vector ETV
attr interpolationmode sample-hold
attr recordingmode vector
attr source "count(interpacketGapStarted) - count(interpacketGapEnded)"
attr title "interpacket gap state"
attr type int
vector 26 TSN5GPLUS.tsnClient.eth[0].phyLayer.transmitter transmitting:vector ETV
attr interpolationmode sample-hold
attr recordingmode vector
attr source "count(transmissionStarted) - count(transmissionEnded)"
attr title "transmitting state"
attr type int
vector 27 TSN5GPLUS.tsnClient.udp passedUpPk:vector(count) ETV
attr interpolationmode none
attr recordingmode vector(count)
attr source packetSentToUpper
attr title "packets passed up, count"
vector 28 TSN5GPLUS.tsnClient.udp droppedPkWrongPort:vector(count) ETV
attr interpolationmode none
attr recordingmode vector(count)
attr source packetDropReasonIsNoPortFound(packetDropped)
attr title "packets dropped (wrong port), count"
vector 29 TSN5GPLUS.tsnClient.udp droppedPkBadChecksum:vector(count) ETV
attr interpolationmode none
attr recordingmode vector(count)
attr source packetDropReasonIsIncorrectlyReceived(packetDropped)
attr title "packets dropped (checksum error), count"
vector 30 TSN5GPLUS.ue1.udp passedUpPk:vector(count) ETV
attr interpolationmode none
attr recordingmode vector(count)
attr source packetSentToUpper
attr title "packets passed up, count"
vector 31 TSN5GPLUS.ue1.udp droppedPkWrongPort:vector(count) ETV
attr interpolationmode none
attr recordingmode vector(count)
attr source packetDropReasonIsNoPortFound(packetDropped)
attr title "packets dropped (wrong port), count"
vector 32 TSN5GPLUS.ue1.udp droppedPkBadChecksum:vector(count) ETV
attr interpolationmode none
attr recordingmode vector(count)
attr source packetDropReasonIsIncorrectlyReceived(packetDropped)
attr title "packets dropped (checksum error), count"
vector 33 TSN5GPLUS.ue1.cellularNic.phy servingCell:vector ETV
attr recordingmode vector
attr source servingCell
attr title "ID of the serving eNodeB for the UE"
attr unit ""
vector 34 TSN5GPLUS.ue1.cellularNic.nrPhy servingCell:vector ETV
attr recordingmode vector
attr source servingCell
attr title "ID of the serving eNodeB for the UE"
attr unit ""
vector 35 TSN5GPLUS.tsnSwitch.bridging.streamFilter.ingress.meter[0] numTokens:vector ETV
attr interpolationmode linear
attr moduledisplaypath TSN5GPLUS.tsnSwitch.bridging.streamFilter.ingress.besteffort
attr recordingmode vector
attr source tokensChanged
attr title "number of tokens"
attr unit tk
vector 36 TSN5GPLUS.tsnSwitch.bridging.streamFilter.ingress.meter[1] numTokens:vector ETV
attr interpolationmode linear
attr moduledisplaypath TSN5GPLUS.tsnSwitch.bridging.streamFilter.ingress.video
attr recordingmode vector
attr source tokensChanged
attr title "number of tokens"
attr unit tk
vector 37 TSN5GPLUS.tsnSwitch.eth[0].macLayer.queue.transmissionSelectionAlgorithm[0] gateState:vector ETV
attr enum CLOSED,OPEN
attr interpolationmode sample-hold
attr moduledisplaypath TSN5GPLUS.tsnSwitch.eth[0].macLayer.queue.besteffort
attr recordingmode vector
attr source gateStateChanged
attr title "gate state"
attr type enum
vector 38 TSN5GPLUS.tsnSwitch.eth[0].macLayer.queue.transmissionSelectionAlgorithm[0] remainingEligibilityTime:vector ETV
attr interpolationmode linear
attr moduledisplaypath TSN5GPLUS.tsnSwitch.eth[0].macLayer.queue.besteffort
attr recordingmode vector
attr source remainingEligibilityTimeChanged
attr title "remaining eligibility time"
attr unit s
vector 39 TSN5GPLUS.tsnSwitch.eth[0].macLayer.queue.transmissionSelectionAlgorithm[1] gateState:vector ETV
attr enum CLOSED,OPEN
attr interpolationmode sample-hold
attr moduledisplaypath TSN5GPLUS.tsnSwitch.eth[0].macLayer.queue.video
attr recordingmode vector
attr source gateStateChanged
attr title "gate state"
attr type enum
vector 40 TSN5GPLUS.tsnSwitch.eth[0].macLayer.queue.transmissionSelectionAlgorithm[1] remainingEligibilityTime:vector ETV
attr interpolationmode linear
attr moduledisplaypath TSN5GPLUS.tsnSwitch.eth[0].macLayer.queue.video
attr recordingmode vector
attr source remainingEligibilityTimeChanged
attr title "remaining eligibility time"
attr unit s
vector 41 TSN5GPLUS.tsnSwitch.eth[1].macLayer.queue.transmissionSelectionAlgorithm[0] gateState:vector ETV
attr enum CLOSED,OPEN
attr interpolationmode sample-hold
attr moduledisplaypath TSN5GPLUS.tsnSwitch.eth[1].macLayer.queue.besteffort
attr recordingmode vector
attr source gateStateChanged
attr title "gate state"
attr type enum
vector 42 TSN5GPLUS.tsnSwitch.eth[1].macLayer.queue.transmissionSelectionAlgorithm[0] remainingEligibilityTime:vector ETV
attr interpolationmode linear
attr moduledisplaypath TSN5GPLUS.tsnSwitch.eth[1].macLayer.queue.besteffort
attr recordingmode vector
attr source remainingEligibilityTimeChanged
attr title "remaining eligibility time"
attr unit s
vector 43 TSN5GPLUS.tsnSwitch.eth[1].macLayer.queue.transmissionSelectionAlgorithm[1] gateState:vector ETV
attr enum CLOSED,OPEN
attr interpolationmode sample-hold
attr moduledisplaypath TSN5GPLUS.tsnSwitch.eth[1].macLayer.queue.video
attr recordingmode vector
attr source gateStateChanged
attr title "gate state"
attr type enum
vector 44 TSN5GPLUS.tsnSwitch.eth[1].macLayer.queue.transmissionSelectionAlgorithm[1] remainingEligibilityTime:vector ETV
attr interpolationmode linear
attr moduledisplaypath TSN5GPLUS.tsnSwitch.eth[1].macLayer.queue.video
attr recordingmode vector
attr source remainingEligibilityTimeChanged
attr title "remaining eligibility time"
attr unit s
vector 45 TSN5GPLUS.tsnSwitch.eth[2].macLayer.queue.transmissionSelectionAlgorithm[0] gateState:vector ETV
attr enum CLOSED,OPEN
attr interpolationmode sample-hold
attr moduledisplaypath TSN5GPLUS.tsnSwitch.eth[2].macLayer.queue.besteffort
attr recordingmode vector
attr source gateStateChanged
attr title "gate state"
attr type enum
vector 46 TSN5GPLUS.tsnSwitch.eth[2].macLayer.queue.transmissionSelectionAlgorithm[0] remainingEligibilityTime:vector ETV
attr interpolationmode linear
attr moduledisplaypath TSN5GPLUS.tsnSwitch.eth[2].macLayer.queue.besteffort
attr recordingmode vector
attr source remainingEligibilityTimeChanged
attr title "remaining eligibility time"
attr unit s
vector 47 TSN5GPLUS.tsnSwitch.eth[2].macLayer.queue.transmissionSelectionAlgorithm[1] gateState:vector ETV
attr enum CLOSED,OPEN
attr interpolationmode sample-hold
attr moduledisplaypath TSN5GPLUS.tsnSwitch.eth[2].macLayer.queue.video
attr recordingmode vector
attr source gateStateChanged
attr title "gate state"
attr type enum
vector 48 TSN5GPLUS.tsnSwitch.eth[2].macLayer.queue.transmissionSelectionAlgorithm[1] remainingEligibilityTime:vector ETV
attr interpolationmode linear
attr moduledisplaypath TSN5GPLUS.tsnSwitch.eth[2].macLayer.queue.video
attr recordingmode vector
attr source remainingEligibilityTimeChanged
attr title "remaining eligibility time"
attr unit s
vector 49 TSN5GPLUS.tsnClient.app[0].source packetLengths:vector ETV
attr interpolationmode none
attr moduledisplaypath TSN5GPLUS.tsnClient.besteffort.source
attr recordingmode vector
attr source packetLength(packetPushed)
attr title "packet lengths"
attr unit b
vector 50 TSN5GPLUS.tsnClient.app[1].source packetLengths:vector ETV
attr interpolationmode none
attr moduledisplaypath TSN5GPLUS.tsnClient.video.source
attr recordingmode vector
attr source packetLength(packetPushed)
attr title "packet lengths"
attr unit b
vector 51 TSN5GPLUS.tsnServer.clock timeChanged:vector ETV
attr interpolationmode linear
attr recordingmode vector
attr title "Clock time"
vector 52 TSN5GPLUS.tsnSwitch.clock timeChanged:vector ETV
attr interpolationmode linear
attr recordingmode vector
attr title "Clock time"
vector 53 TSN5GPLUS.tsnSwitch.bridging.streamFilter.ingress.gate[0] gateState:vector ETV
attr enum CLOSED,OPEN
attr interpolationmode sample-hold
attr moduledisplaypath TSN5GPLUS.tsnSwitch.bridging.streamFilter.ingress.besteffort
attr recordingmode vector
attr source gateStateChanged
attr title "gate state"
attr type enum
vector 54 TSN5GPLUS.tsnSwitch.bridging.streamFilter.ingress.gate[1] gateState:vector ETV
attr enum CLOSED,OPEN
attr interpolationmode sample-hold
attr moduledisplaypath TSN5GPLUS.tsnSwitch.bridging.streamFilter.ingress.video
attr recordingmode vector
attr source gateStateChanged
attr title "gate state"
attr type enum
vector 55 TSN5GPLUS.tsnSwitch.eth[0].macLayer.queue.transmissionGate[0] gateState:vector ETV
attr enum CLOSED,OPEN
attr interpolationmode sample-hold
attr moduledisplaypath TSN5GPLUS.tsnSwitch.eth[0].macLayer.queue.besteffort
attr recordingmode vector
attr source gateStateChanged
attr title "gate state"
attr type enum
vector 56 TSN5GPLUS.tsnSwitch.eth[0].macLayer.queue.transmissionGate[0] guardBandState:vector ETV
attr enum ON,OFF
attr interpolationmode sample-hold
attr moduledisplaypath TSN5GPLUS.tsnSwitch.eth[0].macLayer.queue.besteffort
attr recordingmode vector
attr source guardBandStateChanged
attr title "guard band state"
attr type enum
vector 57 TSN5GPLUS.tsnSwitch.eth[0].macLayer.queue.transmissionGate[1] gateState:vector ETV
attr enum CLOSED,OPEN
attr interpolationmode sample-hold
attr moduledisplaypath TSN5GPLUS.tsnSwitch.eth[0].macLayer.queue.video
attr recordingmode vector
attr source gateStateChanged
attr title "gate state"
attr type enum
vector 58 TSN5GPLUS.tsnSwitch.eth[0].macLayer.queue.transmissionGate[1] guardBandState:vector ETV
attr enum ON,OFF
attr interpolationmode sample-hold
attr moduledisplaypath TSN5GPLUS.tsnSwitch.eth[0].macLayer.queue.video
attr recordingmode vector
attr source guardBandStateChanged
attr title "guard band state"
attr type enum
vector 59 TSN5GPLUS.tsnSwitch.eth[1].macLayer.queue.transmissionGate[0] gateState:vector ETV
attr enum CLOSED,OPEN
attr interpolationmode sample-hold
attr moduledisplaypath TSN5GPLUS.tsnSwitch.eth[1].macLayer.queue.besteffort
attr recordingmode vector
attr source gateStateChanged
attr title "gate state"
attr type enum
vector 60 TSN5GPLUS.tsnSwitch.eth[1].macLayer.queue.transmissionGate[0] guardBandState:vector ETV
attr enum ON,OFF
attr interpolationmode sample-hold
attr moduledisplaypath TSN5GPLUS.tsnSwitch.eth[1].macLayer.queue.besteffort
attr recordingmode vector
attr source guardBandStateChanged
attr title "guard band state"
attr type enum
vector 61 TSN5GPLUS.tsnSwitch.eth[1].macLayer.queue.transmissionGate[1] gateState:vector ETV
attr enum CLOSED,OPEN
attr interpolationmode sample-hold
attr moduledisplaypath TSN5GPLUS.tsnSwitch.eth[1].macLayer.queue.video
attr recordingmode vector
attr source gateStateChanged
attr title "gate state"
attr type enum
vector 62 TSN5GPLUS.tsnSwitch.eth[1].macLayer.queue.transmissionGate[1] guardBandState:vector ETV
attr enum ON,OFF
attr interpolationmode sample-hold
attr moduledisplaypath TSN5GPLUS.tsnSwitch.eth[1].macLayer.queue.video
attr recordingmode vector
attr source guardBandStateChanged
attr title "guard band state"
attr type enum
vector 63 TSN5GPLUS.tsnSwitch.eth[2].macLayer.queue.transmissionGate[0] gateState:vector ETV
attr enum CLOSED,OPEN
attr interpolationmode sample-hold
attr moduledisplaypath TSN5GPLUS.tsnSwitch.eth[2].macLayer.queue.besteffort
attr recordingmode vector
attr source gateStateChanged
attr title "gate state"
attr type enum
vector 64 TSN5GPLUS.tsnSwitch.eth[2].macLayer.queue.transmissionGate[0] guardBandState:vector ETV
attr enum ON,OFF
attr interpolationmode sample-hold
attr moduledisplaypath TSN5GPLUS.tsnSwitch.eth[2].macLayer.queue.besteffort
attr recordingmode vector
attr source guardBandStateChanged
attr title "guard band state"
attr type enum
vector 65 TSN5GPLUS.tsnSwitch.eth[2].macLayer.queue.transmissionGate[1] gateState:vector ETV
attr enum CLOSED,OPEN
attr interpolationmode sample-hold
attr moduledisplaypath TSN5GPLUS.tsnSwitch.eth[2].macLayer.queue.video
attr recordingmode vector
attr source gateStateChanged
attr title "gate state"
attr type enum
vector 66 TSN5GPLUS.tsnSwitch.eth[2].macLayer.queue.transmissionGate[1] guardBandState:vector ETV
attr enum ON,OFF
attr interpolationmode sample-hold
attr moduledisplaypath TSN5GPLUS.tsnSwitch.eth[2].macLayer.queue.video
attr recordingmode vector
attr source guardBandStateChanged
attr title "guard band state"
attr type enum
vector 67 TSN5GPLUS.tsnClock.clock timeChanged:vector ETV
attr interpolationmode linear
attr recordingmode vector
attr title "Clock time"
vector 68 TSN5GPLUS.tsnClient.clock timeChanged:vector ETV
attr interpolationmode linear
attr recordingmode vector
attr title "Clock time"
vector 69 TSN5GPLUS.tsnClient.app[0].io packetSent:vector(packetBytes) ETV
attr interpolationmode none
attr moduledisplaypath TSN5GPLUS.tsnClient.besteffort.io
attr recordingmode vector(packetBytes)
attr source packetSent
attr title "packets sent, packetBytes"
vector 70 TSN5GPLUS.tsnClient.app[1].io packetSent:vector(packetBytes) ETV
attr interpolationmode none
attr moduledisplaypath TSN5GPLUS.tsnClient.video.io
attr recordingmode vector(packetBytes)
attr source packetSent
attr title "packets sent, packetBytes"
vector 71 TSN5GPLUS.tsnServer.bridging.streamIdentifier.identifier incomingPacketLengths:vector ETV
attr interpolationmode none
attr recordingmode vector
attr source "packetLength(merge(packetPushedIn, packetPulledIn))"
attr title "incoming packet lengths"
attr unit b
0	0	0	0
0	0	0	0
1	0	0	0
1	0	0	0
2	0	0	0
3	0	0	0
4	0	0	0
5	0	0	0
5	0	0	0
6	0	0	0
6	0	0	0
7	0	0	0
7	0	0	0
8	0	0	0
8	0	0	0
9	0	0	0
9	0	0	0
10	0	0	0
10	0	0	0
11	0	0	0
11	0	0	0
12	0	0	0
12	0	0	0
13	0	0	0
14	0	0	0
15	0	0	0
16	0	0	0
17	0	0	0
18	0	0	0
19	0	0	0
20	0	0	0
21	0	0	0
22	0	0	0
23	0	0	0
24	0	0	0
25	0	0	0
25	0	0	0
26	0	0	0
26	0	0	0
27	0	0	0
28	0	0	0
29	0	0	0
30	0	0	0
31	0	0	0
32	0	0	0
33	0	0	1
34	0	0	1
35	0	0	80000
36	0	0	80000
37	0	0	1
37	0	0	1
38	0	0	0
39	0	0	1
39	0	0	1
40	0	0	0
41	0	0	1
41	0	0	1
42	0	0	0
43	0	0	1
43	0	0	1
44	0	0	0
45	0	0	1
45	0	0	1
46	0	0	0
47	0	0	1
47	0	0	1
48	0	0	0
49	0	0	7568
50	0	0	7568
51	0	0	0
52	0	0	0
53	0	0	1
54	0	0	1
55	0	0	1
56	0	0	0
57	0	0	1
58	0	0	0
59	0	0	1
60	0	0	0
61	0	0	1
62	0	0	0
63	0	0	1
64	0	0	0
65	0	0	1
66	0	0	0
67	0	0	0
68	0	0	0
69	13	0	946
70	14	0	946
71	26	0	432

